5318228
  -OEChem-01092204373D

 48 49  0     1  0  0  0  0  0999 V2000
   -0.4743    4.2581   -0.7249 O   0  0  0  0  0  0  0  0  0  0  0  0
    1.4865    2.4596   -1.4044 O   0  0  0  0  0  0  0  0  0  0  0  0
   -6.0304   -0.9984    0.1757 O   0  0  0  0  0  0  0  0  0  0  0  0
   -4.7974   -3.2383   -0.9132 O   0  0  0  0  0  0  0  0  0  0  0  0
   -0.6056    3.3093    0.3315 C   0  0  1  0  0  0  0  0  0  0  0  0
   -1.4316    2.1185   -0.1689 C   0  0  0  0  0  0  0  0  0  0  0  0
    0.7796    2.9077    0.8439 C   0  0  0  0  0  0  0  0  0  0  0  0
   -1.6850    1.0891    0.9391 C   0  0  0  0  0  0  0  0  0  0  0  0
    1.6217    2.2038   -0.2081 C   0  0  0  0  0  0  0  0  0  0  0  0
    2.5936    1.1466    0.2951 C   0  0  0  0  0  0  0  0  0  0  0  0
   -2.5195   -0.0656    0.4449 C   0  0  0  0  0  0  0  0  0  0  0  0
    3.4201    0.4948   -0.8148 C   0  0  0  0  0  0  0  0  0  0  0  0
    4.3685   -0.5650   -0.3068 C   0  0  0  0  0  0  0  0  0  0  0  0
   -3.9011    0.0033    0.5402 C   0  0  0  0  0  0  0  0  0  0  0  0
   -1.8914   -1.1772   -0.0960 C   0  0  0  0  0  0  0  0  0  0  0  0
   -4.6731   -1.0651    0.0836 C   0  0  0  0  0  0  0  0  0  0  0  0
   -2.6632   -2.2455   -0.5525 C   0  0  0  0  0  0  0  0  0  0  0  0
   -4.0540   -2.1894   -0.4628 C   0  0  0  0  0  0  0  0  0  0  0  0
    5.6524   -0.2032    0.0686 C   0  0  0  0  0  0  0  0  0  0  0  0
    3.9372   -1.8793   -0.2251 C   0  0  0  0  0  0  0  0  0  0  0  0
    6.5285   -1.1820    0.5379 C   0  0  0  0  0  0  0  0  0  0  0  0
    4.8134   -2.8580    0.2444 C   0  0  0  0  0  0  0  0  0  0  0  0
    6.1090   -2.5092    0.6258 C   0  0  0  0  0  0  0  0  0  0  0  0
   -6.5840    0.1856    0.7468 C   0  0  0  0  0  0  0  0  0  0  0  0
   -1.1425    3.8112    1.1452 H   0  0  0  0  0  0  0  0  0  0  0  0
   -2.3913    2.4925   -0.5510 H   0  0  0  0  0  0  0  0  0  0  0  0
   -0.9535    1.6460   -1.0355 H   0  0  0  0  0  0  0  0  0  0  0  0
    1.3414    3.8047    1.1312 H   0  0  0  0  0  0  0  0  0  0  0  0
    0.6994    2.2738    1.7316 H   0  0  0  0  0  0  0  0  0  0  0  0
   -2.1815    1.5673    1.7931 H   0  0  0  0  0  0  0  0  0  0  0  0
   -0.7425    0.6869    1.3272 H   0  0  0  0  0  0  0  0  0  0  0  0
    2.0089    0.3820    0.8203 H   0  0  0  0  0  0  0  0  0  0  0  0
    3.2578    1.6256    1.0239 H   0  0  0  0  0  0  0  0  0  0  0  0
    2.7520    0.0533   -1.5665 H   0  0  0  0  0  0  0  0  0  0  0  0
    3.9877    1.2635   -1.3562 H   0  0  0  0  0  0  0  0  0  0  0  0
   -1.3698    4.5248   -0.9941 H   0  0  0  0  0  0  0  0  0  0  0  0
   -4.3232    0.9042    0.9717 H   0  0  0  0  0  0  0  0  0  0  0  0
   -0.8088   -1.2291   -0.1724 H   0  0  0  0  0  0  0  0  0  0  0  0
   -2.1749   -3.1181   -0.9778 H   0  0  0  0  0  0  0  0  0  0  0  0
    5.9872    0.8282    0.0056 H   0  0  0  0  0  0  0  0  0  0  0  0
    2.9294   -2.1598   -0.5178 H   0  0  0  0  0  0  0  0  0  0  0  0
    7.5370   -0.9104    0.8356 H   0  0  0  0  0  0  0  0  0  0  0  0
    4.4866   -3.8914    0.3136 H   0  0  0  0  0  0  0  0  0  0  0  0
    6.7910   -3.2712    0.9917 H   0  0  0  0  0  0  0  0  0  0  0  0
   -5.7375   -3.0289   -0.7738 H   0  0  0  0  0  0  0  0  0  0  0  0
   -7.6726    0.0665    0.7422 H   0  0  0  0  0  0  0  0  0  0  0  0
   -6.2827    0.3086    1.7927 H   0  0  0  0  0  0  0  0  0  0  0  0
   -6.3590    1.0696    0.1405 H   0  0  0  0  0  0  0  0  0  0  0  0
  1  5  1  0  0  0  0
  1 36  1  0  0  0  0
  2  9  2  0  0  0  0
  3 16  1  0  0  0  0
  3 24  1  0  0  0  0
  4 18  1  0  0  0  0
  4 45  1  0  0  0  0
  5  6  1  0  0  0  0
  5  7  1  0  0  0  0
  5 25  1  0  0  0  0
  6  8  1  0  0  0  0
  6 26  1  0  0  0  0
  6 27  1  0  0  0  0
  7  9  1  0  0  0  0
  7 28  1  0  0  0  0
  7 29  1  0  0  0  0
  8 11  1  0  0  0  0
  8 30  1  0  0  0  0
  8 31  1  0  0  0  0
  9 10  1  0  0  0  0
 10 12  1  0  0  0  0
 10 32  1  0  0  0  0
 10 33  1  0  0  0  0
 11 14  2  0  0  0  0
 11 15  1  0  0  0  0
 12 13  1  0  0  0  0
 12 34  1  0  0  0  0
 12 35  1  0  0  0  0
 13 19  2  0  0  0  0
 13 20  1  0  0  0  0
 14 16  1  0  0  0  0
 14 37  1  0  0  0  0
 15 17  2  0  0  0  0
 15 38  1  0  0  0  0
 16 18  2  0  0  0  0
 17 18  1  0  0  0  0
 17 39  1  0  0  0  0
 19 21  1  0  0  0  0
 19 40  1  0  0  0  0
 20 22  2  0  0  0  0
 20 41  1  0  0  0  0
 21 23  2  0  0  0  0
 21 42  1  0  0  0  0
 22 23  1  0  0  0  0
 22 43  1  0  0  0  0
 23 44  1  0  0  0  0
 24 46  1  0  0  0  0
 24 47  1  0  0  0  0
 24 48  1  0  0  0  0
M  END
> <PUBCHEM_COMPOUND_CID>
5318228

> <PUBCHEM_CONFORMER_RMSD>
1.2

> <PUBCHEM_CONFORMER_DIVERSEORDER>
2
261
234
210
152
190
216
148
72
86
52
51
77
3
241
48
12
281
215
164
119
53
179
31
103
274
113
85
150
131
136
200
161
141
180
76
220
203
63
75
89
118
229
59
57
193
87
175
4
1
249
270
167
271
106
41
47
166
98
251
278
209
37
157
78
243
99
184
236
114
257
244
206
277
58
201
177
112
21
101
231
174
153
189
185
55
169
19
45
96
7
151
83
64
267
176
15
127
97
225
197
125
67
128
238
266
110
129
33
104
62
22
88
213
54
39
282
279
60
10
124
133
145
46
163
105
49
171
44
140
8
259
269
34
239
111
228
205
30
276
226
139
254
221
95
222
42
108
195
100
38
233
35
68
178
168
126
155
211
186
117
218
36
138
29
208
214
154
40
256
66
245
156
198
143
280
16
182
130
94
24
262
160
102
5
26
121
194
6
217
20
188
123
272
9
132
71
116
232
65
237
258
252
144
115
248
172
27
219
183
82
56
50
255
74
17
173
93
18
181
80
90
23
13
196
81
247
146
268
240
43
107
192
28
159
207
134
273
92
158
25
11
264
70
260
187
69
61
147
191
263
242
224
32
253
246
199
149
135
250
122
84
265
170
227
275
73
137
212
142
204
79
202
223
230
165
120
109
235
162
91
14

> <PUBCHEM_MMFF94_PARTIAL_CHARGES>
33
1 -0.68
10 0.06
11 -0.14
12 0.14
13 -0.14
14 -0.15
15 -0.15
16 0.08
17 -0.15
18 0.08
19 -0.15
2 -0.57
20 -0.15
21 -0.15
22 -0.15
23 -0.15
24 0.28
3 -0.36
36 0.4
37 0.15
38 0.15
39 0.15
4 -0.53
40 0.15
41 0.15
42 0.15
43 0.15
44 0.15
45 0.45
5 0.28
7 0.06
8 0.14
9 0.45

> <PUBCHEM_EFFECTIVE_ROTOR_COUNT>
9

> <PUBCHEM_PHARMACOPHORE_FEATURES>
7
1 1 acceptor
1 1 donor
1 2 acceptor
1 3 acceptor
1 4 donor
6 11 14 15 16 17 18 rings
6 13 19 20 21 22 23 rings

> <PUBCHEM_HEAVY_ATOM_COUNT>
24

> <PUBCHEM_ATOM_DEF_STEREO_COUNT>
0

> <PUBCHEM_ATOM_UDEF_STEREO_COUNT>
1

> <PUBCHEM_BOND_DEF_STEREO_COUNT>
0

> <PUBCHEM_BOND_UDEF_STEREO_COUNT>
0

> <PUBCHEM_ISOTOPIC_ATOM_COUNT>
0

> <PUBCHEM_COMPONENT_COUNT>
1

> <PUBCHEM_CACTVS_TAUTO_COUNT>
9

> <PUBCHEM_CONFORMER_ID>
0051265400000002

> <PUBCHEM_MMFF94_ENERGY>
62.3869

> <PUBCHEM_FEATURE_SELFOVERLAP>
35.527

> <PUBCHEM_SHAPE_FINGERPRINT>
10483366 6 18265598894059957309
10622 236 17824812357300934242
10939801 23 18342738563942577876
11135926 11 18120650486148949468
11552529 35 18196651796831056752
12107183 9 18342750611294526457
12166972 35 17822014215834426150
12293681 25 18123435445569418028
13004483 165 18412542111192393836
13631057 29 18411703145951464264
14117953 113 18272655610725159671
14347332 77 18334573491335679536
14394314 77 18412829109370505352
14429380 30 18408605885725422674
1454969 45 18336269050689656076
14681490 219 18334290942512085178
14866123 147 18268716017898222433
15352361 1 18411419514289163314
16120349 21 18269847414993639897
17492 89 18051692445644201795
17857418 61 18413389843257886714
20403669 9 18342182150312254782
21478907 32 18409450254256451192
23559900 14 18269267040500174121
3004659 81 18113900472643718512
3246872 21 18411695500372458174
3421961 26 18269553995649835280
3680242 22 18340218448425776171
444735 79 18340750638572211704
46194498 28 17241046625419163492
463206 1 18336831995272041202
5104073 3 17844540005448025179
559249 180 18409731721244276369
56633871 153 18342181055264665611
5924683 9 18339923689210301016
7970288 3 18410571816415214386
88748 71 18264495151271819587

> <PUBCHEM_SHAPE_MULTIPOLES>
470.43
16.11
4.49
0.92
4.7
2.62
-0.06
-15.66
2.39
-0.24
-0.72
-0.02
0.2
-1.53

> <PUBCHEM_SHAPE_SELFOVERLAP>
979.783

> <PUBCHEM_SHAPE_VOLUME>
266.3

> <PUBCHEM_COORDINATE_TYPE>
2
5
10

$$$$
