101564134
  -OEChem-02022211243D

 42 42  0     1  0  0  0  0  0999 V2000
    2.2834   -2.4460   -0.5344 O   0  0  0  0  0  0  0  0  0  0  0  0
    4.1119   -0.2745   -0.4265 O   0  0  0  0  0  0  0  0  0  0  0  0
   -4.1216   -0.5737    0.8406 O   0  0  0  0  0  0  0  0  0  0  0  0
    0.0942    0.3446    0.8403 C   0  0  2  0  0  0  0  0  0  0  0  0
    0.8095    1.5269    0.0959 C   0  0  0  0  0  0  0  0  0  0  0  0
    0.4743   -1.0469    0.2477 C   0  0  1  0  0  0  0  0  0  0  0  0
    2.3316    1.2596    0.0579 C   0  0  0  0  0  0  0  0  0  0  0  0
    2.0021   -1.2353    0.1736 C   0  0  2  0  0  0  0  0  0  0  0  0
    2.7005   -0.0878   -0.5495 C   0  0  2  0  0  0  0  0  0  0  0  0
   -1.4335    0.5184    0.9036 C   0  0  0  0  0  0  0  0  0  0  0  0
    0.6039    2.8579    0.8552 C   0  0  0  0  0  0  0  0  0  0  0  0
    0.2774    1.7208   -1.3395 C   0  0  0  0  0  0  0  0  0  0  0  0
   -0.1455   -2.2070    1.0466 C   0  0  0  0  0  0  0  0  0  0  0  0
   -2.0921   -0.0158   -0.3636 C   0  0  0  0  0  0  0  0  0  0  0  0
   -3.6173    0.1150   -0.3005 C   0  0  1  0  0  0  0  0  0  0  0  0
   -4.2789   -0.4563   -1.5474 C   0  0  0  0  0  0  0  0  0  0  0  0
    0.4559    0.3650    1.8795 H   0  0  0  0  0  0  0  0  0  0  0  0
    0.1172   -1.1389   -0.7843 H   0  0  0  0  0  0  0  0  0  0  0  0
    2.7420    1.3097    1.0768 H   0  0  0  0  0  0  0  0  0  0  0  0
    2.8506    2.0562   -0.4924 H   0  0  0  0  0  0  0  0  0  0  0  0
    2.4241   -1.3554    1.1789 H   0  0  0  0  0  0  0  0  0  0  0  0
    2.4717   -0.1130   -1.6209 H   0  0  0  0  0  0  0  0  0  0  0  0
   -1.8086   -0.0345    1.7739 H   0  0  0  0  0  0  0  0  0  0  0  0
   -1.7269    1.5570    1.0761 H   0  0  0  0  0  0  0  0  0  0  0  0
    0.8875    2.7598    1.9090 H   0  0  0  0  0  0  0  0  0  0  0  0
    1.2206    3.6540    0.4210 H   0  0  0  0  0  0  0  0  0  0  0  0
   -0.4317    3.2082    0.8168 H   0  0  0  0  0  0  0  0  0  0  0  0
    0.2630    0.7960   -1.9217 H   0  0  0  0  0  0  0  0  0  0  0  0
    0.9297    2.4137   -1.8871 H   0  0  0  0  0  0  0  0  0  0  0  0
   -0.7105    2.1912   -1.3522 H   0  0  0  0  0  0  0  0  0  0  0  0
    0.2647   -2.2322    2.0627 H   0  0  0  0  0  0  0  0  0  0  0  0
    0.0839   -3.1692    0.5759 H   0  0  0  0  0  0  0  0  0  0  0  0
   -1.2315   -2.1577    1.1422 H   0  0  0  0  0  0  0  0  0  0  0  0
   -1.9081   -1.0820   -0.5057 H   0  0  0  0  0  0  0  0  0  0  0  0
   -1.7729    0.4784   -1.2755 H   0  0  0  0  0  0  0  0  0  0  0  0
    1.9223   -2.3603   -1.4332 H   0  0  0  0  0  0  0  0  0  0  0  0
    4.5458    0.4551   -0.9010 H   0  0  0  0  0  0  0  0  0  0  0  0
   -3.8885    1.1722   -0.1979 H   0  0  0  0  0  0  0  0  0  0  0  0
   -4.0777   -1.5290   -1.6424 H   0  0  0  0  0  0  0  0  0  0  0  0
   -5.3671   -0.3458   -1.4885 H   0  0  0  0  0  0  0  0  0  0  0  0
   -3.9280    0.0492   -2.4522 H   0  0  0  0  0  0  0  0  0  0  0  0
   -5.0853   -0.4451    0.8595 H   0  0  0  0  0  0  0  0  0  0  0  0
  1  8  1  0  0  0  0
  1 36  1  0  0  0  0
  2  9  1  0  0  0  0
  2 37  1  0  0  0  0
  3 15  1  0  0  0  0
  3 42  1  0  0  0  0
  4  5  1  0  0  0  0
  4  6  1  0  0  0  0
  4 10  1  0  0  0  0
  4 17  1  0  0  0  0
  5  7  1  0  0  0  0
  5 11  1  0  0  0  0
  5 12  1  0  0  0  0
  6  8  1  0  0  0  0
  6 13  1  0  0  0  0
  6 18  1  0  0  0  0
  7  9  1  0  0  0  0
  7 19  1  0  0  0  0
  7 20  1  0  0  0  0
  8  9  1  0  0  0  0
  8 21  1  0  0  0  0
  9 22  1  0  0  0  0
 10 14  1  0  0  0  0
 10 23  1  0  0  0  0
 10 24  1  0  0  0  0
 11 25  1  0  0  0  0
 11 26  1  0  0  0  0
 11 27  1  0  0  0  0
 12 28  1  0  0  0  0
 12 29  1  0  0  0  0
 12 30  1  0  0  0  0
 13 31  1  0  0  0  0
 13 32  1  0  0  0  0
 13 33  1  0  0  0  0
 14 15  1  0  0  0  0
 14 34  1  0  0  0  0
 14 35  1  0  0  0  0
 15 16  1  0  0  0  0
 15 38  1  0  0  0  0
 16 39  1  0  0  0  0
 16 40  1  0  0  0  0
 16 41  1  0  0  0  0
M  END
> <PUBCHEM_COMPOUND_CID>
101564134

> <PUBCHEM_CONFORMER_RMSD>
0.6

> <PUBCHEM_CONFORMER_DIVERSEORDER>
1
13
16
7
2
15
8
14
19
18
10
11
17
3
9
12
4
6
5

> <PUBCHEM_MMFF94_PARTIAL_CHARGES>
9
1 -0.68
15 0.28
2 -0.68
3 -0.68
36 0.4
37 0.4
42 0.4
8 0.28
9 0.28

> <PUBCHEM_EFFECTIVE_ROTOR_COUNT>
4.2

> <PUBCHEM_PHARMACOPHORE_FEATURES>
8
1 1 acceptor
1 1 donor
1 2 acceptor
1 2 donor
1 3 acceptor
1 3 donor
3 5 11 12 hydrophobe
6 4 5 6 7 8 9 rings

> <PUBCHEM_HEAVY_ATOM_COUNT>
16

> <PUBCHEM_ATOM_DEF_STEREO_COUNT>
5

> <PUBCHEM_ATOM_UDEF_STEREO_COUNT>
0

> <PUBCHEM_BOND_DEF_STEREO_COUNT>
0

> <PUBCHEM_BOND_UDEF_STEREO_COUNT>
0

> <PUBCHEM_ISOTOPIC_ATOM_COUNT>
0

> <PUBCHEM_COMPONENT_COUNT>
1

> <PUBCHEM_CACTVS_TAUTO_COUNT>
1

> <PUBCHEM_CONFORMER_ID>
060DBEE600000001

> <PUBCHEM_MMFF94_ENERGY>
51.9251

> <PUBCHEM_FEATURE_SELFOVERLAP>
40.602

> <PUBCHEM_SHAPE_FINGERPRINT>
11471102 20 18411697720500460045
11806522 49 18343298188699775017
12423570 1 17318483103349327344
12654215 9 18334005112153407172
13380536 243 17968096455697086692
14251717 144 18411694404769740503
14251745 187 17968084279739447221
14576447 43 18201147828061374623
14617773 55 18055646009920417304
14911166 2 18335990830569700750
14993402 34 18343021090321236414
15757776 16 18410288086537949142
15852999 172 18193265527806501448
15906896 17 17123662467506101684
16945 1 18341896315722134120
18186145 218 18335698386278158097
19010151 120 18130791144209782960
20201158 50 18408327678843751490
20233049 118 15357682098597497149
20511035 2 17975983386037104352
20588541 1 18335145306070009570
20645477 70 18339911676423995351
21041028 32 18269287768012468161
21256008 61 18272645766301108653
21501502 16 17899408697342235108
21634736 98 18057309785851472839
22112679 90 17702124524424681529
221490 88 18194966468295459571
22182313 1 17978528734265503432
2255824 54 18200310064593902317
23402539 116 18338518526245227182
23402655 69 18411133602706311573
23419403 2 15872444765135771234
23559900 14 18338527460389425140
23598291 2 17845939636278943309
25 1 18335422399884653235
2748010 2 18050022270190393016
3060560 45 18261657255968042559
3323516 105 18335704991917078691
63268167 104 18410576179969436329
7364860 26 18200305653731009297
77492 1 17846787299561201273
81228 2 16749563476336492715

> <PUBCHEM_SHAPE_MULTIPOLES>
311.66
6.14
2.42
1.19
5.43
0.24
0.14
-1.55
2.01
-1.59
-0.41
0.63
0.1
0.22

> <PUBCHEM_SHAPE_SELFOVERLAP>
611.697

> <PUBCHEM_SHAPE_VOLUME>
187.2

> <PUBCHEM_COORDINATE_TYPE>
2
5
10

$$$$
