5312603
  -OEChem-01302209263D

 28 27  0     0  0  0  0  0  0999 V2000
    5.4044   -1.0230    0.2938 O   0  0  0  0  0  0  0  0  0  0  0  0
    4.6693    0.8135   -0.8203 O   0  0  0  0  0  0  0  0  0  0  0  0
   -0.5709    0.8005   -0.0328 C   0  0  0  0  0  0  0  0  0  0  0  0
    0.5770   -0.0955    0.4454 C   0  0  0  0  0  0  0  0  0  0  0  0
   -1.9500    0.3106    0.4159 C   0  0  0  0  0  0  0  0  0  0  0  0
    1.9499    0.3544   -0.0662 C   0  0  0  0  0  0  0  0  0  0  0  0
   -3.1039    1.1754   -0.1106 C   0  0  0  0  0  0  0  0  0  0  0  0
    3.0716   -0.5904    0.3688 C   0  0  0  0  0  0  0  0  0  0  0  0
   -4.5027    0.7382    0.3297 C   0  0  0  0  0  0  0  0  0  0  0  0
    4.4356   -0.1706   -0.1327 C   0  0  0  0  0  0  0  0  0  0  0  0
   -4.8471   -0.6068   -0.1511 C   0  0  0  0  0  0  0  0  0  0  0  0
   -5.1332   -1.7061   -0.5398 C   0  0  0  0  0  0  0  0  0  0  0  0
   -0.4103    1.8209    0.3361 H   0  0  0  0  0  0  0  0  0  0  0  0
   -0.5502    0.8528   -1.1284 H   0  0  0  0  0  0  0  0  0  0  0  0
    0.5867   -0.1161    1.5420 H   0  0  0  0  0  0  0  0  0  0  0  0
    0.3903   -1.1234    0.1102 H   0  0  0  0  0  0  0  0  0  0  0  0
   -2.0815   -0.7236    0.0765 H   0  0  0  0  0  0  0  0  0  0  0  0
   -1.9863    0.2916    1.5120 H   0  0  0  0  0  0  0  0  0  0  0  0
    2.1608    1.3680    0.2965 H   0  0  0  0  0  0  0  0  0  0  0  0
    1.9300    0.4134   -1.1617 H   0  0  0  0  0  0  0  0  0  0  0  0
   -3.0605    1.1912   -1.2075 H   0  0  0  0  0  0  0  0  0  0  0  0
   -2.9472    2.2093    0.2218 H   0  0  0  0  0  0  0  0  0  0  0  0
    3.1122   -0.6282    1.4632 H   0  0  0  0  0  0  0  0  0  0  0  0
    2.8702   -1.5980   -0.0120 H   0  0  0  0  0  0  0  0  0  0  0  0
   -4.5666    0.7658    1.4236 H   0  0  0  0  0  0  0  0  0  0  0  0
   -5.2369    1.4583   -0.0498 H   0  0  0  0  0  0  0  0  0  0  0  0
    6.2933   -0.7524   -0.0205 H   0  0  0  0  0  0  0  0  0  0  0  0
   -5.3865   -2.6812   -0.8847 H   0  0  0  0  0  0  0  0  0  0  0  0
  1 10  1  0  0  0  0
  1 27  1  0  0  0  0
  2 10  2  0  0  0  0
  3  4  1  0  0  0  0
  3  5  1  0  0  0  0
  3 13  1  0  0  0  0
  3 14  1  0  0  0  0
  4  6  1  0  0  0  0
  4 15  1  0  0  0  0
  4 16  1  0  0  0  0
  5  7  1  0  0  0  0
  5 17  1  0  0  0  0
  5 18  1  0  0  0  0
  6  8  1  0  0  0  0
  6 19  1  0  0  0  0
  6 20  1  0  0  0  0
  7  9  1  0  0  0  0
  7 21  1  0  0  0  0
  7 22  1  0  0  0  0
  8 10  1  0  0  0  0
  8 23  1  0  0  0  0
  8 24  1  0  0  0  0
  9 11  1  0  0  0  0
  9 25  1  0  0  0  0
  9 26  1  0  0  0  0
 11 12  3  0  0  0  0
 12 28  1  0  0  0  0
M  END
> <PUBCHEM_COMPOUND_CID>
5312603

> <PUBCHEM_CONFORMER_RMSD>
0.8

> <PUBCHEM_CONFORMER_DIVERSEORDER>
1
110
84
26
100
108
120
14
122
13
2
102
25
34
11
21
3
38
29
114
30
103
28
33
97
19
42
117
48
93
115
71
104
101
50
54
99
58
15
119
95
6
47
105
7
27
123
52
78
91
31
76
85
36
107
67
55
90
24
109
16
49
72
18
40
106
44
32
45
8
80
121
35
68
4
92
39
98
59
17
46
89
124
65
9
113
5
79
69
82
23
88
87
63
81
22
10
86
75
70
118
112
74
43
41
51
111
77
37
57
12
96
64
116
83
20
73
53
66
94
61
56
62
60

> <PUBCHEM_MMFF94_PARTIAL_CHARGES>
9
1 -0.65
10 0.66
11 -0.2
12 -0.18
2 -0.57
27 0.5
28 0.18
8 0.06
9 0.2

> <PUBCHEM_EFFECTIVE_ROTOR_COUNT>
7

> <PUBCHEM_PHARMACOPHORE_FEATURES>
4
1 1 acceptor
1 12 hydrophobe
1 2 acceptor
3 1 2 10 anion

> <PUBCHEM_HEAVY_ATOM_COUNT>
12

> <PUBCHEM_ATOM_DEF_STEREO_COUNT>
0

> <PUBCHEM_ATOM_UDEF_STEREO_COUNT>
0

> <PUBCHEM_BOND_DEF_STEREO_COUNT>
0

> <PUBCHEM_BOND_UDEF_STEREO_COUNT>
0

> <PUBCHEM_ISOTOPIC_ATOM_COUNT>
0

> <PUBCHEM_COMPONENT_COUNT>
1

> <PUBCHEM_CACTVS_TAUTO_COUNT>
1

> <PUBCHEM_CONFORMER_ID>
0051105B00000001

> <PUBCHEM_MMFF94_ENERGY>
2.6279

> <PUBCHEM_FEATURE_SELFOVERLAP>
20.356

> <PUBCHEM_SHAPE_FINGERPRINT>
10912923 1 18335422339723644816
11287383 113 18060416941191865912
114248 4 18408604768474204200
117890 112 8070029964929625014
12757275 245 18412544353777232503
13167823 11 18410571764743380707
13288520 33 18413670227987715175
14123238 8 18334577940494569068
14123255 352 8358264739534088227
1420 363 17418096524531737079
14251718 22 18412826910447131960
14251732 16 18200870794318068832
14252887 29 15554456180003748844
14455015 7 16200160876020932948
15501527 24 18186522128514528798
17834072 33 18409168830850580916
17834076 25 8430596111502946281
18342897 14 9223228546350516474
20300324 65 18335140878001269721
20621476 21 17631468880658216079
20621476 30 18408606980594248227
20645477 56 11602819091307183573
20645477 70 18188491268637316850
20724930 69 9007062374771611029
20828058 44 18060137635442547865
21426921 1 18411135797835896461
22485316 2 18410009897422060593
22896161 15 18341893051742122320
23402539 116 18259982652545915405
23402655 69 17968088669475429357
42788 4 18187085035539532105
441001 317 12035442831607508679
49783359 22 18060415820321575959
57483677 66 18410572855775869722
7062679 117 18408889572330267455
7495541 125 18131629015056718664

> <PUBCHEM_SHAPE_MULTIPOLES>
235.22
13.98
1.27
0.73
3.8
0.29
0.02
4.32
1.42
-1.39
0.12
0.1
-0.01
-0.79

> <PUBCHEM_SHAPE_SELFOVERLAP>
431.656

> <PUBCHEM_SHAPE_VOLUME>
147.7

> <PUBCHEM_COORDINATE_TYPE>
2
5
10

$$$$
