160597
  -OEChem-01042211233D

 35 39  0     1  0  0  0  0  0999 V2000
   -0.2743    2.8424    0.1413 O   0  0  0  0  0  0  0  0  0  0  0  0
   -2.6730    2.7993    0.1464 O   0  0  0  0  0  0  0  0  0  0  0  0
   -0.7773   -3.2879    0.2381 N   0  0  0  0  0  0  0  0  0  0  0  0
    0.0196   -2.1296   -0.1925 C   0  0  1  0  0  0  0  0  0  0  0  0
   -0.7340   -0.8112   -0.0935 C   0  0  0  0  0  0  0  0  0  0  0  0
    1.2994   -2.0700    0.6561 C   0  0  0  0  0  0  0  0  0  0  0  0
   -2.1536   -0.8194   -0.0890 C   0  0  0  0  0  0  0  0  0  0  0  0
    0.0068    0.4016   -0.0588 C   0  0  0  0  0  0  0  0  0  0  0  0
   -2.9112   -2.1237   -0.0818 C   0  0  0  0  0  0  0  0  0  0  0  0
   -2.0495   -3.3204   -0.4809 C   0  0  0  0  0  0  0  0  0  0  0  0
    2.1326   -0.8668    0.2755 C   0  0  0  0  0  0  0  0  0  0  0  0
    1.4892    0.3437   -0.0793 C   0  0  0  0  0  0  0  0  0  0  0  0
   -0.7499    1.5676    0.0290 C   0  0  0  0  0  0  0  0  0  0  0  0
   -2.8583    0.3847   -0.0141 C   0  0  0  0  0  0  0  0  0  0  0  0
   -2.1311    1.5535    0.0461 C   0  0  0  0  0  0  0  0  0  0  0  0
    3.5325   -0.9564    0.3080 C   0  0  0  0  0  0  0  0  0  0  0  0
    2.3059    1.4226   -0.4585 C   0  0  0  0  0  0  0  0  0  0  0  0
   -1.4885    3.6111    0.1978 C   0  0  0  0  0  0  0  0  0  0  0  0
    4.3136    0.1373   -0.0494 C   0  0  0  0  0  0  0  0  0  0  0  0
    3.7009    1.3217   -0.4406 C   0  0  0  0  0  0  0  0  0  0  0  0
    0.2999   -2.2703   -1.2463 H   0  0  0  0  0  0  0  0  0  0  0  0
    1.8781   -2.9906    0.5063 H   0  0  0  0  0  0  0  0  0  0  0  0
    1.0661   -1.9960    1.7270 H   0  0  0  0  0  0  0  0  0  0  0  0
   -3.3052   -2.2803    0.9307 H   0  0  0  0  0  0  0  0  0  0  0  0
   -3.7657   -2.0597   -0.7659 H   0  0  0  0  0  0  0  0  0  0  0  0
   -0.9520   -3.2340    1.2417 H   0  0  0  0  0  0  0  0  0  0  0  0
   -2.5794   -4.2494   -0.2438 H   0  0  0  0  0  0  0  0  0  0  0  0
   -1.8717   -3.3287   -1.5638 H   0  0  0  0  0  0  0  0  0  0  0  0
   -3.9428    0.4011    0.0132 H   0  0  0  0  0  0  0  0  0  0  0  0
    4.0183   -1.8828    0.6036 H   0  0  0  0  0  0  0  0  0  0  0  0
    1.8826    2.3646   -0.7936 H   0  0  0  0  0  0  0  0  0  0  0  0
   -1.5024    4.3098   -0.6466 H   0  0  0  0  0  0  0  0  0  0  0  0
   -1.4964    4.1874    1.1299 H   0  0  0  0  0  0  0  0  0  0  0  0
    5.3967    0.0632   -0.0316 H   0  0  0  0  0  0  0  0  0  0  0  0
    4.3072    2.1736   -0.7357 H   0  0  0  0  0  0  0  0  0  0  0  0
  1 13  1  0  0  0  0
  1 18  1  0  0  0  0
  2 15  1  0  0  0  0
  2 18  1  0  0  0  0
  3  4  1  0  0  0  0
  3 10  1  0  0  0  0
  3 26  1  0  0  0  0
  4  5  1  0  0  0  0
  4  6  1  0  0  0  0
  4 21  1  0  0  0  0
  5  7  1  0  0  0  0
  5  8  2  0  0  0  0
  6 11  1  0  0  0  0
  6 22  1  0  0  0  0
  6 23  1  0  0  0  0
  7  9  1  0  0  0  0
  7 14  2  0  0  0  0
  8 12  1  0  0  0  0
  8 13  1  0  0  0  0
  9 10  1  0  0  0  0
  9 24  1  0  0  0  0
  9 25  1  0  0  0  0
 10 27  1  0  0  0  0
 10 28  1  0  0  0  0
 11 12  1  0  0  0  0
 11 16  2  0  0  0  0
 12 17  2  0  0  0  0
 13 15  2  0  0  0  0
 14 15  1  0  0  0  0
 14 29  1  0  0  0  0
 16 19  1  0  0  0  0
 16 30  1  0  0  0  0
 17 20  1  0  0  0  0
 17 31  1  0  0  0  0
 18 32  1  0  0  0  0
 18 33  1  0  0  0  0
 19 20  2  0  0  0  0
 19 34  1  0  0  0  0
 20 35  1  0  0  0  0
M  END
> <PUBCHEM_COMPOUND_CID>
160597

> <PUBCHEM_CONFORMER_RMSD>
0.6

> <PUBCHEM_CONFORMER_DIVERSEORDER>
1

> <PUBCHEM_MMFF94_PARTIAL_CHARGES>
24
1 -0.36
10 0.27
11 -0.14
13 0.08
14 -0.15
15 0.08
16 -0.15
17 -0.15
18 0.56
19 -0.15
2 -0.36
20 -0.15
26 0.36
29 0.15
3 -0.9
30 0.15
31 0.15
34 0.15
35 0.15
4 0.41
5 -0.14
6 0.14
7 -0.14
9 0.14

> <PUBCHEM_EFFECTIVE_ROTOR_COUNT>
1.4

> <PUBCHEM_PHARMACOPHORE_FEATURES>
9
1 1 acceptor
1 2 acceptor
1 3 cation
1 3 donor
5 1 2 13 15 18 rings
6 11 12 16 17 19 20 rings
6 3 4 5 7 9 10 rings
6 4 5 6 8 11 12 rings
6 5 7 8 13 14 15 rings

> <PUBCHEM_HEAVY_ATOM_COUNT>
20

> <PUBCHEM_ATOM_DEF_STEREO_COUNT>
1

> <PUBCHEM_ATOM_UDEF_STEREO_COUNT>
0

> <PUBCHEM_BOND_DEF_STEREO_COUNT>
0

> <PUBCHEM_BOND_UDEF_STEREO_COUNT>
0

> <PUBCHEM_ISOTOPIC_ATOM_COUNT>
0

> <PUBCHEM_COMPONENT_COUNT>
1

> <PUBCHEM_CACTVS_TAUTO_COUNT>
1

> <PUBCHEM_CONFORMER_ID>
0002735500000001

> <PUBCHEM_MMFF94_ENERGY>
54.2273

> <PUBCHEM_FEATURE_SELFOVERLAP>
45.917

> <PUBCHEM_SHAPE_FINGERPRINT>
10319926 262 18198317669021995658
10411042 1 18050849119830331502
10616163 171 18411140246962929950
10967382 1 18338234856038925415
1100329 8 18267028443416125441
11578080 2 17174010543951091044
12173636 292 18339637820097048268
12553582 1 18194964281909095067
12788726 201 18335138751965980906
13027679 85 18194119853031798279
13140716 1 18337107981275071594
138480 1 16609697857456528655
14081887 123 18269822272323628600
14178342 30 17834097659444416328
14787075 74 17534915391476614962
14790565 3 18340214007725556417
15042514 8 18410016562958544715
15309172 13 18195535787379309033
15442244 35 18336260142415761658
16087824 20 18410856578027596589
16752209 62 18339349799463129463
16945 1 18265896852160442935
19591789 44 17617944625849170262
19868273 325 18266457804948939806
20510252 161 18342741810109782840
20775438 99 16545192285079196255
21029758 11 18123464144793441127
21267235 1 18264497354653625086
21524375 3 18116718400359576592
2334 1 18337952423321586927
23402539 116 18271238442894145470
23419403 2 16748687655100266812
23557571 272 18201167649783565556
23558518 356 18334299742995052466
23559900 14 18200872873767775730
238 59 16815701355246353877
25147074 1 18040715879830690484
2748010 2 16029300445430200270
3091708 16 9129629329133229937
335352 9 18049722915138391254
34934 24 18196084679957394471
350125 39 18194407688459409368
352729 6 18339358539906284039
474 4 17619345403610319889
6438718 38 17988929998010198735
7097593 13 17899399910319488434
7364860 26 17475233496588199949
81228 2 18268443497268356138
90525 40 18339079259488965686
9709674 26 18343588434590801590

> <PUBCHEM_SHAPE_MULTIPOLES>
394.87
5.69
4.19
0.68
4.88
0.98
0
-0.28
-0.32
-3.55
0.18
0.09
-0.08
-0.64

> <PUBCHEM_SHAPE_SELFOVERLAP>
902.86

> <PUBCHEM_SHAPE_VOLUME>
203.1

> <PUBCHEM_COORDINATE_TYPE>
2
5
10

$$$$
