160875
  -OEChem-01042212583D

 37 40  0     1  0  0  0  0  0999 V2000
    0.4571   -2.7983    0.0824 O   0  0  0  0  0  0  0  0  0  0  0  0
   -2.1649   -3.3782    0.1118 O   0  0  0  0  0  0  0  0  0  0  0  0
   -1.5983    2.9747   -0.3637 N   0  0  0  0  0  0  0  0  0  0  0  0
   -0.5627    2.0627    0.1453 C   0  0  1  0  0  0  0  0  0  0  0  0
   -0.9812    0.6020    0.1044 C   0  0  0  0  0  0  0  0  0  0  0  0
    0.7247    2.2732   -0.6662 C   0  0  0  0  0  0  0  0  0  0  0  0
   -2.3503    0.2689    0.0895 C   0  0  0  0  0  0  0  0  0  0  0  0
    0.0157   -0.4033    0.1479 C   0  0  0  0  0  0  0  0  0  0  0  0
   -3.4005    1.3460   -0.0081 C   0  0  0  0  0  0  0  0  0  0  0  0
   -2.8642    2.7373    0.3285 C   0  0  0  0  0  0  0  0  0  0  0  0
    1.8017    1.3055   -0.2293 C   0  0  0  0  0  0  0  0  0  0  0  0
    1.4453   -0.0074    0.1605 C   0  0  0  0  0  0  0  0  0  0  0  0
   -0.4084   -1.7430    0.1506 C   0  0  0  0  0  0  0  0  0  0  0  0
   -2.7323   -1.0746    0.0922 C   0  0  0  0  0  0  0  0  0  0  0  0
   -1.7655   -2.0741    0.1257 C   0  0  0  0  0  0  0  0  0  0  0  0
    3.1464    1.7041   -0.2612 C   0  0  0  0  0  0  0  0  0  0  0  0
    2.4802   -0.8753    0.5518 C   0  0  0  0  0  0  0  0  0  0  0  0
    4.1498    0.8202    0.1226 C   0  0  0  0  0  0  0  0  0  0  0  0
    3.8167   -0.4657    0.5332 C   0  0  0  0  0  0  0  0  0  0  0  0
    0.7906   -3.2746   -1.2178 C   0  0  0  0  0  0  0  0  0  0  0  0
   -0.3602    2.3160    1.1960 H   0  0  0  0  0  0  0  0  0  0  0  0
    1.0716    3.3063   -0.5352 H   0  0  0  0  0  0  0  0  0  0  0  0
    0.5481    2.1172   -1.7391 H   0  0  0  0  0  0  0  0  0  0  0  0
   -3.7920    1.3450   -1.0335 H   0  0  0  0  0  0  0  0  0  0  0  0
   -4.2330    1.1153    0.6671 H   0  0  0  0  0  0  0  0  0  0  0  0
   -1.7238    2.8302   -1.3657 H   0  0  0  0  0  0  0  0  0  0  0  0
   -3.5943    3.4953    0.0247 H   0  0  0  0  0  0  0  0  0  0  0  0
   -2.7282    2.8498    1.4115 H   0  0  0  0  0  0  0  0  0  0  0  0
   -3.7859   -1.3418    0.0589 H   0  0  0  0  0  0  0  0  0  0  0  0
    3.4157    2.7074   -0.5810 H   0  0  0  0  0  0  0  0  0  0  0  0
    2.2984   -1.8703    0.9410 H   0  0  0  0  0  0  0  0  0  0  0  0
    5.1888    1.1350    0.1059 H   0  0  0  0  0  0  0  0  0  0  0  0
    4.5969   -1.1520    0.8506 H   0  0  0  0  0  0  0  0  0  0  0  0
   -1.3825   -3.9438    0.2285 H   0  0  0  0  0  0  0  0  0  0  0  0
    1.2023   -2.4706   -1.8364 H   0  0  0  0  0  0  0  0  0  0  0  0
   -0.0837   -3.7095   -1.7117 H   0  0  0  0  0  0  0  0  0  0  0  0
    1.5508   -4.0534   -1.1112 H   0  0  0  0  0  0  0  0  0  0  0  0
  1 13  1  0  0  0  0
  1 20  1  0  0  0  0
  2 15  1  0  0  0  0
  2 34  1  0  0  0  0
  3  4  1  0  0  0  0
  3 10  1  0  0  0  0
  3 26  1  0  0  0  0
  4  5  1  0  0  0  0
  4  6  1  0  0  0  0
  4 21  1  0  0  0  0
  5  7  1  0  0  0  0
  5  8  2  0  0  0  0
  6 11  1  0  0  0  0
  6 22  1  0  0  0  0
  6 23  1  0  0  0  0
  7  9  1  0  0  0  0
  7 14  2  0  0  0  0
  8 12  1  0  0  0  0
  8 13  1  0  0  0  0
  9 10  1  0  0  0  0
  9 24  1  0  0  0  0
  9 25  1  0  0  0  0
 10 27  1  0  0  0  0
 10 28  1  0  0  0  0
 11 12  1  0  0  0  0
 11 16  2  0  0  0  0
 12 17  2  0  0  0  0
 13 15  2  0  0  0  0
 14 15  1  0  0  0  0
 14 29  1  0  0  0  0
 16 18  1  0  0  0  0
 16 30  1  0  0  0  0
 17 19  1  0  0  0  0
 17 31  1  0  0  0  0
 18 19  2  0  0  0  0
 18 32  1  0  0  0  0
 19 33  1  0  0  0  0
 20 35  1  0  0  0  0
 20 36  1  0  0  0  0
 20 37  1  0  0  0  0
M  END
> <PUBCHEM_COMPOUND_CID>
160875

> <PUBCHEM_CONFORMER_RMSD>
0.6

> <PUBCHEM_CONFORMER_DIVERSEORDER>
1

> <PUBCHEM_MMFF94_PARTIAL_CHARGES>
25
1 -0.36
10 0.27
11 -0.14
13 0.08
14 -0.15
15 0.08
16 -0.15
17 -0.15
18 -0.15
19 -0.15
2 -0.53
20 0.28
26 0.36
29 0.15
3 -0.9
30 0.15
31 0.15
32 0.15
33 0.15
34 0.45
4 0.41
5 -0.14
6 0.14
7 -0.14
9 0.14

> <PUBCHEM_EFFECTIVE_ROTOR_COUNT>
1.8

> <PUBCHEM_PHARMACOPHORE_FEATURES>
8
1 1 acceptor
1 2 donor
1 3 cation
1 3 donor
6 11 12 16 17 18 19 rings
6 3 4 5 7 9 10 rings
6 4 5 6 8 11 12 rings
6 5 7 8 13 14 15 rings

> <PUBCHEM_HEAVY_ATOM_COUNT>
20

> <PUBCHEM_ATOM_DEF_STEREO_COUNT>
1

> <PUBCHEM_ATOM_UDEF_STEREO_COUNT>
0

> <PUBCHEM_BOND_DEF_STEREO_COUNT>
0

> <PUBCHEM_BOND_UDEF_STEREO_COUNT>
0

> <PUBCHEM_ISOTOPIC_ATOM_COUNT>
0

> <PUBCHEM_COMPONENT_COUNT>
1

> <PUBCHEM_CACTVS_TAUTO_COUNT>
9

> <PUBCHEM_CONFORMER_ID>
0002746B00000001

> <PUBCHEM_MMFF94_ENERGY>
68.5597

> <PUBCHEM_FEATURE_SELFOVERLAP>
40.686

> <PUBCHEM_SHAPE_FINGERPRINT>
10319926 262 18198037340775724968
10411042 1 17905890636311039354
10493431 412 18340774736927528969
10616163 171 18410014355540214930
10967382 1 18265895756938631152
11132069 177 18409724032931089120
11680986 33 18050297972535866057
12035758 1 17763184644379776794
12173636 292 18412257354855361996
12553582 1 17690844879427214550
13140716 1 18266465489046112513
13380535 76 18339357453100086659
138480 1 17113254439055539979
14081887 123 17983280819089102216
14178342 30 18264470945189346696
14790565 3 18338809931171366001
15006816 218 18195528078039301236
15042514 8 18336548312692482075
15196674 1 18408603660536328032
15309172 13 18337678494692469705
15442244 35 18335416864109567736
16110190 28 17974827512298088642
16752209 62 18340200898999377238
16945 1 18338521832889854253
19591789 44 17689438178895744142
20261772 1 18337688497781734353
20510252 161 18271811262714061552
20775438 99 16185469498220599599
20905425 154 18197500627553550718
21267235 1 18263652912516893034
22182313 1 18120105991753692981
23184049 29 18194403526731239988
2334 1 18266178529026905833
23402539 116 18199178667112953991
23463225 33 18334292037728407640
23559900 14 18343584024081264356
238 59 17322068314372674605
2748010 2 18338799038658529711
3091708 16 9198595088042153345
335352 9 18193555571601520668
34934 24 17691683811146623604
352729 6 18410859862570152813
5104073 3 18408881863222765720
54173680 148 18337110184503337537
5939293 188 17257929295655904499
6438718 38 18060139877251933437
6992083 37 18187086169463957764
7097593 13 17970328336027778466
7364860 26 17909266879889246204
84936 31 16840769172561692686
90525 40 18410856581225499862
9709674 26 18342178869115450742

> <PUBCHEM_SHAPE_MULTIPOLES>
394.87
5.66
4
0.76
2.88
1.85
0.09
-2.09
-0.67
-2.03
0.72
0.18
0.16
-0.05

> <PUBCHEM_SHAPE_SELFOVERLAP>
882.139

> <PUBCHEM_SHAPE_VOLUME>
208.2

> <PUBCHEM_COORDINATE_TYPE>
2
5
10

$$$$
