9838995
  -OEChem-01052211163D

 29 31  0     1  0  0  0  0  0999 V2000
   -1.0027    2.4393    0.0771 O   0  0  0  0  0  0  0  0  0  0  0  0
   -3.8537    1.8439   -0.3116 O   0  0  0  0  0  0  0  0  0  0  0  0
   -2.2630   -3.2868    0.3243 O   0  0  0  0  0  0  0  0  0  0  0  0
    0.7023   -2.3538   -0.6215 O   0  0  0  0  0  0  0  0  0  0  0  0
   -1.6463   -1.6828    1.8219 O   0  0  0  0  0  0  0  0  0  0  0  0
    0.9217    3.5682    0.4680 O   0  0  0  0  0  0  0  0  0  0  0  0
    3.3892   -2.2226   -0.3780 O   0  0  0  0  0  0  0  0  0  0  0  0
    4.6399    0.1830    0.1448 O   0  0  0  0  0  0  0  0  0  0  0  0
   -1.8790   -1.1262   -0.5222 C   0  0  2  0  0  0  0  0  0  0  0  0
   -0.9614    0.0264   -0.2745 C   0  0  0  0  0  0  0  0  0  0  0  0
   -3.2641   -0.4806   -0.6846 C   0  0  0  0  0  0  0  0  0  0  0  0
   -1.5725    1.2040   -0.1595 C   0  0  0  0  0  0  0  0  0  0  0  0
    0.4885    0.0194   -0.1754 C   0  0  0  0  0  0  0  0  0  0  0  0
   -3.0036    0.9697   -0.3680 C   0  0  0  0  0  0  0  0  0  0  0  0
    1.1370    1.2402    0.0794 C   0  0  0  0  0  0  0  0  0  0  0  0
   -1.9078   -2.0277    0.6790 C   0  0  0  0  0  0  0  0  0  0  0  0
    1.2552   -1.1414   -0.3312 C   0  0  0  0  0  0  0  0  0  0  0  0
    0.3591    2.5063    0.2281 C   0  0  0  0  0  0  0  0  0  0  0  0
    2.5325    1.2879    0.1883 C   0  0  0  0  0  0  0  0  0  0  0  0
    2.6460   -1.0887   -0.2229 C   0  0  0  0  0  0  0  0  0  0  0  0
    3.2827    0.1223    0.0383 C   0  0  0  0  0  0  0  0  0  0  0  0
   -1.6028   -1.6838   -1.4231 H   0  0  0  0  0  0  0  0  0  0  0  0
   -4.0196   -0.8836   -0.0034 H   0  0  0  0  0  0  0  0  0  0  0  0
   -3.6115   -0.5573   -1.7199 H   0  0  0  0  0  0  0  0  0  0  0  0
    3.0396    2.2290    0.3862 H   0  0  0  0  0  0  0  0  0  0  0  0
   -2.2863   -3.8919    1.0961 H   0  0  0  0  0  0  0  0  0  0  0  0
    1.4106   -3.0171   -0.6916 H   0  0  0  0  0  0  0  0  0  0  0  0
    4.3284   -1.9921   -0.2708 H   0  0  0  0  0  0  0  0  0  0  0  0
    4.9039    1.1012    0.3265 H   0  0  0  0  0  0  0  0  0  0  0  0
  1 12  1  0  0  0  0
  1 18  1  0  0  0  0
  2 14  2  0  0  0  0
  3 16  1  0  0  0  0
  3 26  1  0  0  0  0
  4 17  1  0  0  0  0
  4 27  1  0  0  0  0
  5 16  2  0  0  0  0
  6 18  2  0  0  0  0
  7 20  1  0  0  0  0
  7 28  1  0  0  0  0
  8 21  1  0  0  0  0
  8 29  1  0  0  0  0
  9 10  1  0  0  0  0
  9 11  1  0  0  0  0
  9 16  1  0  0  0  0
  9 22  1  0  0  0  0
 10 12  2  0  0  0  0
 10 13  1  0  0  0  0
 11 14  1  0  0  0  0
 11 23  1  0  0  0  0
 11 24  1  0  0  0  0
 12 14  1  0  0  0  0
 13 15  1  0  0  0  0
 13 17  2  0  0  0  0
 15 18  1  0  0  0  0
 15 19  2  0  0  0  0
 17 20  1  0  0  0  0
 19 21  1  0  0  0  0
 19 25  1  0  0  0  0
 20 21  2  0  0  0  0
M  END
> <PUBCHEM_COMPOUND_CID>
9838995

> <PUBCHEM_CONFORMER_RMSD>
0.6

> <PUBCHEM_CONFORMER_DIVERSEORDER>
1
2

> <PUBCHEM_MMFF94_PARTIAL_CHARGES>
26
1 -0.23
10 -0.17
11 0.06
12 0.09
13 0.03
14 0.49
15 0.09
16 0.66
17 0.08
18 0.63
19 -0.15
2 -0.57
20 0.08
21 0.08
25 0.15
26 0.5
27 0.45
28 0.45
29 0.45
3 -0.65
4 -0.53
5 -0.57
6 -0.57
7 -0.53
8 -0.53
9 0.2

> <PUBCHEM_EFFECTIVE_ROTOR_COUNT>
1.4

> <PUBCHEM_PHARMACOPHORE_FEATURES>
11
1 2 acceptor
1 3 acceptor
1 4 donor
1 5 acceptor
1 6 acceptor
1 7 donor
1 8 donor
3 3 5 16 anion
5 9 10 11 12 14 rings
6 1 10 12 13 15 18 rings
6 13 15 17 19 20 21 rings

> <PUBCHEM_HEAVY_ATOM_COUNT>
21

> <PUBCHEM_ATOM_DEF_STEREO_COUNT>
0

> <PUBCHEM_ATOM_UDEF_STEREO_COUNT>
1

> <PUBCHEM_BOND_DEF_STEREO_COUNT>
0

> <PUBCHEM_BOND_UDEF_STEREO_COUNT>
0

> <PUBCHEM_ISOTOPIC_ATOM_COUNT>
0

> <PUBCHEM_COMPONENT_COUNT>
1

> <PUBCHEM_CACTVS_TAUTO_COUNT>
363

> <PUBCHEM_CONFORMER_ID>
0096219300000001

> <PUBCHEM_MMFF94_ENERGY>
55.3927

> <PUBCHEM_FEATURE_SELFOVERLAP>
55.988

> <PUBCHEM_SHAPE_FINGERPRINT>
10616163 171 18410857698128103966
10693767 8 17912897549680060399
10906281 52 18269849643796985604
10967382 1 18340202986242719836
1100329 8 16537641362793273410
11578080 2 16699469043949336347
11680986 33 18194956572511461529
12553582 1 18412267203231078812
12788726 201 18124314896458209816
13140716 1 18268712877607196465
13380535 76 18411133593736516807
13544592 271 18412821382687058970
14022347 108 18264220105760657760
14115302 16 18187657855491200484
14223421 5 18121499330246227593
14251745 187 18341041956706648538
14648413 74 18338230599842873465
14790565 3 18051982419929109809
15196674 1 18340764840858025044
16945 1 18339361993081167053
19591789 44 18050851009810639849
20510252 161 18054503608670459296
20588541 1 18410291380646152373
21267235 1 18413112757521182663
21339142 51 18409164428588145908
21501502 16 18191310579147722365
221490 88 18193276523154822334
2334 1 18340207491795145710
23402539 116 18269823229673794676
23558518 356 17619920452285725140
23559900 14 18266729367246905672
25 1 18264761082835531301
2748010 2 18267860777628314236
3084891 72 18194677056086992235
335352 9 18124312709802794156
34934 24 18340476790571376580
350125 39 18194126449901397077
5104073 3 18340483370197439763
7364860 26 18197773517012234944
81228 2 18053676784611076320
8809292 202 18336830779875079718
9709674 26 18412544301646775070

> <PUBCHEM_SHAPE_MULTIPOLES>
385.22
5.88
3.41
0.83
2.29
0.49
0.22
-0.77
-0.42
-0.67
0.49
-0.36
-0.31
0.81

> <PUBCHEM_SHAPE_SELFOVERLAP>
871.604

> <PUBCHEM_SHAPE_VOLUME>
202.1

> <PUBCHEM_COORDINATE_TYPE>
2
5
10

$$$$
