158891
  -OEChem-01102204173D

102107  0     1  0  0  0  0  0999 V2000
   -4.6412    0.0157    0.4343 O   0  0  0  0  0  0  0  0  0  0  0  0
   -2.7842    1.0676   -2.2647 O   0  0  0  0  0  0  0  0  0  0  0  0
    7.0527   -2.5603   -1.1507 O   0  0  0  0  0  0  0  0  0  0  0  0
    5.8003   -2.4405    0.7500 O   0  0  0  0  0  0  0  0  0  0  0  0
   -6.4703    1.0080    1.5705 O   0  0  0  0  0  0  0  0  0  0  0  0
   -5.6553    3.3935   -0.2346 O   0  0  0  0  0  0  0  0  0  0  0  0
   -6.9535    1.6221   -2.4958 O   0  0  0  0  0  0  0  0  0  0  0  0
   -8.8426    0.0124   -1.0093 O   0  0  0  0  0  0  0  0  0  0  0  0
   -8.3661   -1.9430    1.0654 O   0  0  0  0  0  0  0  0  0  0  0  0
   -6.4217   -1.5424    2.1854 O   0  0  0  0  0  0  0  0  0  0  0  0
    1.9849   -0.8940   -0.5803 C   0  0  2  0  0  0  0  0  0  0  0  0
    1.1366   -0.2761    0.5958 C   0  0  1  0  0  0  0  0  0  0  0  0
   -0.3764   -0.7610    0.7378 C   0  0  2  0  0  0  0  0  0  0  0  0
    3.3484   -0.0035   -0.7473 C   0  0  1  0  0  0  0  0  0  0  0  0
   -1.0486   -0.5990   -0.6757 C   0  0  2  0  0  0  0  0  0  0  0  0
    1.1485   -0.9030   -1.8908 C   0  0  0  0  0  0  0  0  0  0  0  0
   -2.6142   -0.7461   -0.7195 C   0  0  1  0  0  0  0  0  0  0  0  0
   -0.2859   -1.4159   -1.7385 C   0  0  0  0  0  0  0  0  0  0  0  0
    4.0795    0.0875    0.6074 C   0  0  0  0  0  0  0  0  0  0  0  0
   -1.1061    0.1924    1.7327 C   0  0  0  0  0  0  0  0  0  0  0  0
    1.9370   -0.2766    1.9185 C   0  0  0  0  0  0  0  0  0  0  0  0
    5.5930    0.3220    0.6650 C   0  0  1  0  0  0  0  0  0  0  0  0
    4.2565   -0.6003   -1.8650 C   0  0  0  0  0  0  0  0  0  0  0  0
    6.3666   -0.4069   -0.4593 C   0  0  1  0  0  0  0  0  0  0  0  0
   -3.2296    0.2081    0.3460 C   0  0  2  0  0  0  0  0  0  0  0  0
    2.3586   -2.3779   -0.2718 C   0  0  0  0  0  0  0  0  0  0  0  0
    5.7183   -0.1412   -1.8285 C   0  0  0  0  0  0  0  0  0  0  0  0
   -0.4943   -2.1997    1.3027 C   0  0  0  0  0  0  0  0  0  0  0  0
   -2.6265    0.0505    1.7384 C   0  0  0  0  0  0  0  0  0  0  0  0
    3.4084   -0.0310    1.7704 C   0  0  0  0  0  0  0  0  0  0  0  0
    3.0334    1.4649   -1.1707 C   0  0  0  0  0  0  0  0  0  0  0  0
    5.9138    1.8324    0.7453 C   0  0  0  0  0  0  0  0  0  0  0  0
    7.8629   -0.0220   -0.4713 C   0  0  0  0  0  0  0  0  0  0  0  0
    7.4214    2.1599    0.7897 C   0  0  0  0  0  0  0  0  0  0  0  0
   -3.1450   -0.2826   -2.1055 C   0  0  0  0  0  0  0  0  0  0  0  0
   -3.1136   -2.1939   -0.5386 C   0  0  0  0  0  0  0  0  0  0  0  0
    8.1229    1.4804   -0.4010 C   0  0  0  0  0  0  0  0  0  0  0  0
    6.3559   -1.8993   -0.1943 C   0  0  0  0  0  0  0  0  0  0  0  0
    8.0427    1.7146    2.1272 C   0  0  0  0  0  0  0  0  0  0  0  0
    7.6056    3.6856    0.6709 C   0  0  0  0  0  0  0  0  0  0  0  0
   -5.3096    1.2288    0.7707 C   0  0  2  0  0  0  0  0  0  0  0  0
   -5.6636    1.9894   -0.5115 C   0  0  1  0  0  0  0  0  0  0  0  0
   -7.0456    1.6312   -1.0706 C   0  0  2  0  0  0  0  0  0  0  0  0
   -7.5020    0.2386    0.9594 C   0  0  1  0  0  0  0  0  0  0  0  0
   -7.5083    0.2674   -0.5700 C   0  0  1  0  0  0  0  0  0  0  0  0
   -7.3436   -1.1568    1.4820 C   0  0  0  0  0  0  0  0  0  0  0  0
    1.0280    0.7865    0.3385 H   0  0  0  0  0  0  0  0  0  0  0  0
   -0.8645    0.4539   -0.9436 H   0  0  0  0  0  0  0  0  0  0  0  0
    1.6546   -1.4992   -2.6601 H   0  0  0  0  0  0  0  0  0  0  0  0
    1.0635    0.1038   -2.3060 H   0  0  0  0  0  0  0  0  0  0  0  0
   -0.2867   -2.4857   -1.5151 H   0  0  0  0  0  0  0  0  0  0  0  0
   -0.7553   -1.3191   -2.7211 H   0  0  0  0  0  0  0  0  0  0  0  0
   -0.8674    1.2353    1.4850 H   0  0  0  0  0  0  0  0  0  0  0  0
   -0.7401    0.0271    2.7535 H   0  0  0  0  0  0  0  0  0  0  0  0
    1.5361    0.4979    2.5829 H   0  0  0  0  0  0  0  0  0  0  0  0
    1.8344   -1.2249    2.4510 H   0  0  0  0  0  0  0  0  0  0  0  0
    5.9442   -0.1021    1.6177 H   0  0  0  0  0  0  0  0  0  0  0  0
    4.2737   -1.6907   -1.8290 H   0  0  0  0  0  0  0  0  0  0  0  0
    3.8414   -0.3528   -2.8507 H   0  0  0  0  0  0  0  0  0  0  0  0
   -3.0154    1.2424    0.0433 H   0  0  0  0  0  0  0  0  0  0  0  0
    3.0338   -2.4802    0.5808 H   0  0  0  0  0  0  0  0  0  0  0  0
    1.4871   -2.9930   -0.0583 H   0  0  0  0  0  0  0  0  0  0  0  0
    2.8323   -2.8702   -1.1259 H   0  0  0  0  0  0  0  0  0  0  0  0
    5.7758    0.9230   -2.0816 H   0  0  0  0  0  0  0  0  0  0  0  0
    6.2608   -0.6613   -2.6285 H   0  0  0  0  0  0  0  0  0  0  0  0
    0.3177   -2.4560    1.9849 H   0  0  0  0  0  0  0  0  0  0  0  0
   -1.4026   -2.3476    1.8914 H   0  0  0  0  0  0  0  0  0  0  0  0
   -0.5141   -2.9655    0.5259 H   0  0  0  0  0  0  0  0  0  0  0  0
   -2.9374   -0.9040    2.1767 H   0  0  0  0  0  0  0  0  0  0  0  0
   -3.0396    0.8042    2.4196 H   0  0  0  0  0  0  0  0  0  0  0  0
    3.9561    0.0417    2.7078 H   0  0  0  0  0  0  0  0  0  0  0  0
    3.9381    2.0208   -1.4277 H   0  0  0  0  0  0  0  0  0  0  0  0
    2.4140    1.5238   -2.0677 H   0  0  0  0  0  0  0  0  0  0  0  0
    2.5373    2.0368   -0.3802 H   0  0  0  0  0  0  0  0  0  0  0  0
    5.4210    2.2631    1.6280 H   0  0  0  0  0  0  0  0  0  0  0  0
    5.4834    2.3518   -0.1151 H   0  0  0  0  0  0  0  0  0  0  0  0
    8.3825   -0.5084    0.3652 H   0  0  0  0  0  0  0  0  0  0  0  0
    8.3523   -0.4056   -1.3768 H   0  0  0  0  0  0  0  0  0  0  0  0
   -4.2376   -0.3548   -2.1548 H   0  0  0  0  0  0  0  0  0  0  0  0
   -2.7491   -0.8720   -2.9359 H   0  0  0  0  0  0  0  0  0  0  0  0
   -2.6026   -2.8829   -1.2184 H   0  0  0  0  0  0  0  0  0  0  0  0
   -4.1856   -2.2730   -0.7573 H   0  0  0  0  0  0  0  0  0  0  0  0
   -2.9869   -2.5635    0.4789 H   0  0  0  0  0  0  0  0  0  0  0  0
    9.2056    1.6522   -0.3480 H   0  0  0  0  0  0  0  0  0  0  0  0
    7.7896    1.9414   -1.3397 H   0  0  0  0  0  0  0  0  0  0  0  0
    9.1085    1.9676    2.1665 H   0  0  0  0  0  0  0  0  0  0  0  0
    7.5534    2.2144    2.9711 H   0  0  0  0  0  0  0  0  0  0  0  0
    7.9586    0.6374    2.2946 H   0  0  0  0  0  0  0  0  0  0  0  0
    7.1081    4.2094    1.4949 H   0  0  0  0  0  0  0  0  0  0  0  0
    8.6667    3.9588    0.6923 H   0  0  0  0  0  0  0  0  0  0  0  0
    7.1844    4.0663   -0.2665 H   0  0  0  0  0  0  0  0  0  0  0  0
   -4.6677    1.8587    1.3969 H   0  0  0  0  0  0  0  0  0  0  0  0
   -3.1240    1.3586   -3.1280 H   0  0  0  0  0  0  0  0  0  0  0  0
    7.0574   -3.5290   -0.9967 H   0  0  0  0  0  0  0  0  0  0  0  0
   -4.8982    1.8403   -1.2734 H   0  0  0  0  0  0  0  0  0  0  0  0
   -7.7878    2.3983   -0.8162 H   0  0  0  0  0  0  0  0  0  0  0  0
   -8.4478    0.6188    1.3652 H   0  0  0  0  0  0  0  0  0  0  0  0
   -6.8792   -0.5202   -1.0033 H   0  0  0  0  0  0  0  0  0  0  0  0
   -5.8526    3.8564   -1.0669 H   0  0  0  0  0  0  0  0  0  0  0  0
   -7.8228    1.3557   -2.8410 H   0  0  0  0  0  0  0  0  0  0  0  0
   -9.0905   -0.8752   -0.6995 H   0  0  0  0  0  0  0  0  0  0  0  0
   -8.2794   -2.8626    1.3956 H   0  0  0  0  0  0  0  0  0  0  0  0
  1 25  1  0  0  0  0
  1 41  1  0  0  0  0
  2 35  1  0  0  0  0
  2 93  1  0  0  0  0
  3 38  1  0  0  0  0
  3 94  1  0  0  0  0
  4 38  2  0  0  0  0
  5 41  1  0  0  0  0
  5 44  1  0  0  0  0
  6 42  1  0  0  0  0
  6 99  1  0  0  0  0
  7 43  1  0  0  0  0
  7100  1  0  0  0  0
  8 45  1  0  0  0  0
  8101  1  0  0  0  0
  9 46  1  0  0  0  0
  9102  1  0  0  0  0
 10 46  2  0  0  0  0
 11 12  1  0  0  0  0
 11 14  1  0  0  0  0
 11 16  1  0  0  0  0
 11 26  1  0  0  0  0
 12 13  1  0  0  0  0
 12 21  1  0  0  0  0
 12 47  1  0  0  0  0
 13 15  1  0  0  0  0
 13 20  1  0  0  0  0
 13 28  1  0  0  0  0
 14 19  1  0  0  0  0
 14 23  1  0  0  0  0
 14 31  1  0  0  0  0
 15 17  1  0  0  0  0
 15 18  1  0  0  0  0
 15 48  1  0  0  0  0
 16 18  1  0  0  0  0
 16 49  1  0  0  0  0
 16 50  1  0  0  0  0
 17 25  1  0  0  0  0
 17 35  1  0  0  0  0
 17 36  1  0  0  0  0
 18 51  1  0  0  0  0
 18 52  1  0  0  0  0
 19 22  1  0  0  0  0
 19 30  2  0  0  0  0
 20 29  1  0  0  0  0
 20 53  1  0  0  0  0
 20 54  1  0  0  0  0
 21 30  1  0  0  0  0
 21 55  1  0  0  0  0
 21 56  1  0  0  0  0
 22 24  1  0  0  0  0
 22 32  1  0  0  0  0
 22 57  1  0  0  0  0
 23 27  1  0  0  0  0
 23 58  1  0  0  0  0
 23 59  1  0  0  0  0
 24 27  1  0  0  0  0
 24 33  1  0  0  0  0
 24 38  1  0  0  0  0
 25 29  1  0  0  0  0
 25 60  1  0  0  0  0
 26 61  1  0  0  0  0
 26 62  1  0  0  0  0
 26 63  1  0  0  0  0
 27 64  1  0  0  0  0
 27 65  1  0  0  0  0
 28 66  1  0  0  0  0
 28 67  1  0  0  0  0
 28 68  1  0  0  0  0
 29 69  1  0  0  0  0
 29 70  1  0  0  0  0
 30 71  1  0  0  0  0
 31 72  1  0  0  0  0
 31 73  1  0  0  0  0
 31 74  1  0  0  0  0
 32 34  1  0  0  0  0
 32 75  1  0  0  0  0
 32 76  1  0  0  0  0
 33 37  1  0  0  0  0
 33 77  1  0  0  0  0
 33 78  1  0  0  0  0
 34 37  1  0  0  0  0
 34 39  1  0  0  0  0
 34 40  1  0  0  0  0
 35 79  1  0  0  0  0
 35 80  1  0  0  0  0
 36 81  1  0  0  0  0
 36 82  1  0  0  0  0
 36 83  1  0  0  0  0
 37 84  1  0  0  0  0
 37 85  1  0  0  0  0
 39 86  1  0  0  0  0
 39 87  1  0  0  0  0
 39 88  1  0  0  0  0
 40 89  1  0  0  0  0
 40 90  1  0  0  0  0
 40 91  1  0  0  0  0
 41 42  1  0  0  0  0
 41 92  1  0  0  0  0
 42 43  1  0  0  0  0
 42 95  1  0  0  0  0
 43 45  1  0  0  0  0
 43 96  1  0  0  0  0
 44 45  1  0  0  0  0
 44 46  1  0  0  0  0
 44 97  1  0  0  0  0
 45 98  1  0  0  0  0
M  END
> <PUBCHEM_COMPOUND_CID>
158891

> <PUBCHEM_CONFORMER_RMSD>
1.2

> <PUBCHEM_CONFORMER_DIVERSEORDER>
1
3
7
4
6
5
8
2

> <PUBCHEM_MMFF94_PARTIAL_CHARGES>
32
1 -0.56
10 -0.57
100 0.4
101 0.4
102 0.5
14 0.14
19 -0.28
2 -0.68
21 0.14
22 0.14
24 0.06
25 0.28
3 -0.65
30 -0.29
35 0.28
38 0.66
4 -0.57
41 0.56
42 0.28
43 0.28
44 0.34
45 0.28
46 0.66
5 -0.56
6 -0.68
7 -0.68
71 0.15
8 -0.68
9 -0.65
93 0.4
94 0.5
99 0.4

> <PUBCHEM_EFFECTIVE_ROTOR_COUNT>
8.8

> <PUBCHEM_PHARMACOPHORE_FEATURES>
23
1 1 acceptor
1 10 acceptor
1 2 acceptor
1 2 donor
1 3 acceptor
1 4 acceptor
1 5 acceptor
1 6 acceptor
1 6 donor
1 7 acceptor
1 7 donor
1 8 acceptor
1 8 donor
1 9 acceptor
3 3 4 38 anion
3 34 39 40 hydrophobe
3 9 10 46 anion
6 11 12 13 15 16 18 rings
6 11 12 14 19 21 30 rings
6 13 15 17 20 25 29 rings
6 14 19 22 23 24 27 rings
6 22 24 32 33 34 37 rings
6 5 41 42 43 44 45 rings

> <PUBCHEM_HEAVY_ATOM_COUNT>
46

> <PUBCHEM_ATOM_DEF_STEREO_COUNT>
14

> <PUBCHEM_ATOM_UDEF_STEREO_COUNT>
0

> <PUBCHEM_BOND_DEF_STEREO_COUNT>
0

> <PUBCHEM_BOND_UDEF_STEREO_COUNT>
0

> <PUBCHEM_ISOTOPIC_ATOM_COUNT>
0

> <PUBCHEM_COMPONENT_COUNT>
1

> <PUBCHEM_CACTVS_TAUTO_COUNT>
1

> <PUBCHEM_CONFORMER_ID>
00026CAB00000001

> <PUBCHEM_MMFF94_ENERGY>
189.6633

> <PUBCHEM_FEATURE_SELFOVERLAP>
116.983

> <PUBCHEM_SHAPE_FINGERPRINT>
10 15 18342179981327454899
10076449 9 15410894081158654911
10554248 39 17561366145875634820
10625338 86 18410572877699294105
11135926 11 16128372624178206293
11181472 205 17846228717647626672
11456790 92 18334849490777708008
12133447 93 17096087965642590894
13811026 1 18410573998216065072
13947947 19 16487250001994858392
14294032 229 17312820485385714899
14856354 85 18114188583941656835
15131766 46 18127401475212544700
15183329 4 16487254361217670401
15289351 153 18336259047077385920
15461852 350 17676493848278460003
1577012 14 17561078133710662542
15840311 113 18343586240147304388
17686467 74 18335985346508666289
18603816 31 13695875865860784401
18608769 82 18202286939841643787
19611394 137 18336836389729902065
2026 5 10519167923147666732
20511986 3 17775277305896561812
21033648 29 17821444669174929174
21792934 111 14273727460710816270
22149856 69 15864343602676153124
23559900 14 15410315754631717858
23576562 1 16701162252558288120
24771293 8 16370725911762323743
25269216 80 17845362418396796407
4093350 32 18187643571015971570
4098825 35 18343863337945607226
4112364 45 18269278031374966268
4149490 64 18343587335216992518
4258327 124 17775009041469302260
4403749 210 17967525780047195507
504579 68 14620797128445729808
6086070 43 16773508970957037114
9689198 14 18410294704955984409

> <PUBCHEM_SHAPE_MULTIPOLES>
887.97
28.22
2.65
2.13
11.95
0.94
0.17
11.59
-1.49
-3.01
0.02
1.75
-0.04
2.84

> <PUBCHEM_SHAPE_SELFOVERLAP>
1894.807

> <PUBCHEM_SHAPE_VOLUME>
485.2

> <PUBCHEM_COORDINATE_TYPE>
2
5
10

$$$$
