44259450
  -OEChem-01202205463D

 68 72  0     1  0  0  0  0  0999 V2000
    0.5713   -0.7829   -1.6818 O   0  0  0  0  0  0  0  0  0  0  0  0
   -1.7390   -1.6439   -0.1971 O   0  0  0  0  0  0  0  0  0  0  0  0
    0.8920   -1.2110    0.6049 O   0  0  0  0  0  0  0  0  0  0  0  0
   -2.3128   -3.7557   -1.9603 O   0  0  0  0  0  0  0  0  0  0  0  0
   -2.0589   -1.1617   -2.9113 O   0  0  0  0  0  0  0  0  0  0  0  0
    3.3814    1.4869    0.2684 O   0  0  0  0  0  0  0  0  0  0  0  0
   -2.8776   -3.3702    0.8140 O   0  0  0  0  0  0  0  0  0  0  0  0
    3.2869   -2.4642    1.2600 O   0  0  0  0  0  0  0  0  0  0  0  0
    5.8777   -2.4446    1.6092 O   0  0  0  0  0  0  0  0  0  0  0  0
    8.0881    1.6886    0.8488 O   0  0  0  0  0  0  0  0  0  0  0  0
   -5.0697    1.9878   -0.4766 O   0  0  0  0  0  0  0  0  0  0  0  0
   -6.2071   -0.4534    3.4837 O   0  0  0  0  0  0  0  0  0  0  0  0
   -0.1706    3.5867   -2.8933 O   0  0  0  0  0  0  0  0  0  0  0  0
   -2.1586    2.6792    1.3682 O   0  0  0  0  0  0  0  0  0  0  0  0
   -6.5779    1.7395    1.8329 O   0  0  0  0  0  0  0  0  0  0  0  0
   -2.2675    3.9062   -1.1125 O   0  0  0  0  0  0  0  0  0  0  0  0
   -1.0335   -3.1345   -1.9669 C   0  0  1  0  0  0  0  0  0  0  0  0
   -0.9710   -2.0722   -3.0705 C   0  0  2  0  0  0  0  0  0  0  0  0
   -0.7034   -2.5448   -0.5943 C   0  0  1  0  0  0  0  0  0  0  0  0
    0.3687   -1.3238   -2.9960 C   0  0  1  0  0  0  0  0  0  0  0  0
    0.6262   -1.7908   -0.6686 C   0  0  1  0  0  0  0  0  0  0  0  0
    0.4606   -0.1657   -3.9822 C   0  0  0  0  0  0  0  0  0  0  0  0
    2.0884   -0.5269    0.6134 C   0  0  0  0  0  0  0  0  0  0  0  0
   -2.7653   -2.1949    0.5018 C   0  0  0  0  0  0  0  0  0  0  0  0
    2.1909    0.7780    0.3016 C   0  0  0  0  0  0  0  0  0  0  0  0
    3.3180   -1.2766    0.9661 C   0  0  0  0  0  0  0  0  0  0  0  0
    4.5764   -0.5155    0.9418 C   0  0  0  0  0  0  0  0  0  0  0  0
   -3.7700   -1.1595    0.8527 C   0  0  0  0  0  0  0  0  0  0  0  0
    4.5416    0.8324    0.5922 C   0  0  0  0  0  0  0  0  0  0  0  0
    1.0234    1.5976   -0.0687 C   0  0  0  0  0  0  0  0  0  0  0  0
    5.7896   -1.1305    1.2614 C   0  0  0  0  0  0  0  0  0  0  0  0
   -4.5287   -1.2885    2.0159 C   0  0  0  0  0  0  0  0  0  0  0  0
   -3.9546   -0.0569    0.0184 C   0  0  0  0  0  0  0  0  0  0  0  0
    5.7218    1.5757    0.5604 C   0  0  0  0  0  0  0  0  0  0  0  0
   -0.0307    1.7563    0.8308 C   0  0  0  0  0  0  0  0  0  0  0  0
    0.9722    2.2144   -1.3188 C   0  0  0  0  0  0  0  0  0  0  0  0
    6.9687   -0.3849    1.2289 C   0  0  0  0  0  0  0  0  0  0  0  0
    6.9352    0.9655    0.8792 C   0  0  0  0  0  0  0  0  0  0  0  0
   -4.8978    0.9166    0.3475 C   0  0  0  0  0  0  0  0  0  0  0  0
   -5.4719   -0.3151    2.3450 C   0  0  0  0  0  0  0  0  0  0  0  0
   -0.1330    2.9897   -1.6694 C   0  0  0  0  0  0  0  0  0  0  0  0
   -1.1360    2.5318    0.4804 C   0  0  0  0  0  0  0  0  0  0  0  0
   -5.6566    0.7875    1.5107 C   0  0  0  0  0  0  0  0  0  0  0  0
   -1.1871    3.1484   -0.7698 C   0  0  0  0  0  0  0  0  0  0  0  0
   -0.2959   -3.9158   -2.1905 H   0  0  0  0  0  0  0  0  0  0  0  0
   -1.0974   -2.5498   -4.0491 H   0  0  0  0  0  0  0  0  0  0  0  0
   -0.6066   -3.3421    0.1539 H   0  0  0  0  0  0  0  0  0  0  0  0
    1.1899   -2.0201   -3.2102 H   0  0  0  0  0  0  0  0  0  0  0  0
    1.4312   -2.4989   -0.9120 H   0  0  0  0  0  0  0  0  0  0  0  0
   -0.2618    0.6227   -3.7494 H   0  0  0  0  0  0  0  0  0  0  0  0
    0.2926   -0.5063   -5.0082 H   0  0  0  0  0  0  0  0  0  0  0  0
    1.4524    0.2965   -3.9302 H   0  0  0  0  0  0  0  0  0  0  0  0
   -2.4689   -4.1168   -2.8496 H   0  0  0  0  0  0  0  0  0  0  0  0
   -2.1231   -0.6315   -3.7232 H   0  0  0  0  0  0  0  0  0  0  0  0
   -4.3841   -2.1458    2.6691 H   0  0  0  0  0  0  0  0  0  0  0  0
   -3.3775    0.0557   -0.8949 H   0  0  0  0  0  0  0  0  0  0  0  0
    5.6981    2.6278    0.2880 H   0  0  0  0  0  0  0  0  0  0  0  0
    0.0057    1.2834    1.8100 H   0  0  0  0  0  0  0  0  0  0  0  0
    1.7936    2.0933   -2.0218 H   0  0  0  0  0  0  0  0  0  0  0  0
    7.9137   -0.8623    1.4776 H   0  0  0  0  0  0  0  0  0  0  0  0
    5.0013   -2.8587    1.6005 H   0  0  0  0  0  0  0  0  0  0  0  0
    8.8299    1.1102    1.0962 H   0  0  0  0  0  0  0  0  0  0  0  0
   -4.4534    1.9153   -1.2255 H   0  0  0  0  0  0  0  0  0  0  0  0
   -5.9442   -1.2746    3.9336 H   0  0  0  0  0  0  0  0  0  0  0  0
    0.6390    3.3597   -3.3821 H   0  0  0  0  0  0  0  0  0  0  0  0
   -1.9575    2.1702    2.1722 H   0  0  0  0  0  0  0  0  0  0  0  0
   -7.0047    1.4831    2.6689 H   0  0  0  0  0  0  0  0  0  0  0  0
   -2.8979    3.8947   -0.3714 H   0  0  0  0  0  0  0  0  0  0  0  0
  1 20  1  0  0  0  0
  1 21  1  0  0  0  0
  2 19  1  0  0  0  0
  2 24  1  0  0  0  0
  3 21  1  0  0  0  0
  3 23  1  0  0  0  0
  4 17  1  0  0  0  0
  4 53  1  0  0  0  0
  5 18  1  0  0  0  0
  5 54  1  0  0  0  0
  6 25  1  0  0  0  0
  6 29  1  0  0  0  0
  7 24  2  0  0  0  0
  8 26  2  0  0  0  0
  9 31  1  0  0  0  0
  9 61  1  0  0  0  0
 10 38  1  0  0  0  0
 10 62  1  0  0  0  0
 11 39  1  0  0  0  0
 11 63  1  0  0  0  0
 12 40  1  0  0  0  0
 12 64  1  0  0  0  0
 13 41  1  0  0  0  0
 13 65  1  0  0  0  0
 14 42  1  0  0  0  0
 14 66  1  0  0  0  0
 15 43  1  0  0  0  0
 15 67  1  0  0  0  0
 16 44  1  0  0  0  0
 16 68  1  0  0  0  0
 17 18  1  0  0  0  0
 17 19  1  0  0  0  0
 17 45  1  0  0  0  0
 18 20  1  0  0  0  0
 18 46  1  0  0  0  0
 19 21  1  0  0  0  0
 19 47  1  0  0  0  0
 20 22  1  0  0  0  0
 20 48  1  0  0  0  0
 21 49  1  0  0  0  0
 22 50  1  0  0  0  0
 22 51  1  0  0  0  0
 22 52  1  0  0  0  0
 23 25  2  0  0  0  0
 23 26  1  0  0  0  0
 24 28  1  0  0  0  0
 25 30  1  0  0  0  0
 26 27  1  0  0  0  0
 27 29  1  0  0  0  0
 27 31  2  0  0  0  0
 28 32  2  0  0  0  0
 28 33  1  0  0  0  0
 29 34  2  0  0  0  0
 30 35  2  0  0  0  0
 30 36  1  0  0  0  0
 31 37  1  0  0  0  0
 32 40  1  0  0  0  0
 32 55  1  0  0  0  0
 33 39  2  0  0  0  0
 33 56  1  0  0  0  0
 34 38  1  0  0  0  0
 34 57  1  0  0  0  0
 35 42  1  0  0  0  0
 35 58  1  0  0  0  0
 36 41  2  0  0  0  0
 36 59  1  0  0  0  0
 37 38  2  0  0  0  0
 37 60  1  0  0  0  0
 39 43  1  0  0  0  0
 40 43  2  0  0  0  0
 41 44  1  0  0  0  0
 42 44  2  0  0  0  0
M  END
> <PUBCHEM_COMPOUND_CID>
44259450

> <PUBCHEM_CONFORMER_RMSD>
1

> <PUBCHEM_CONFORMER_DIVERSEORDER>
1
122
64
147
148
96
61
25
111
114
138
158
140
60
68
118
45
123
15
55
41
100
81
24
51
93
133
97
34
95
149
164
90
124
125
150
49
73
79
110
107
50
94
86
53
146
115
46
36
12
108
21
165
30
69
58
77
98
109
17
54
156
3
11
119
126
71
19
59
35
99
85
127
26
139
5
76
14
38
74
31
32
87
152
137
106
144
136
47
23
42
65
132
67
157
83
40
43
16
82
154
27
56
151
39
117
102
145
116
161
162
143
29
134
75
28
44
104
9
121
120
92
163
131
103
113
70
112
155
6
62
141
78
10
52
18
66
33
91
153
48
105
63
128
2
88
101
20
22
7
4
142
72
8
159
89
57
129
130
160
80
13
84
37
135

> <PUBCHEM_MMFF94_PARTIAL_CHARGES>
59
1 -0.56
10 -0.53
11 -0.53
12 -0.53
13 -0.53
14 -0.53
15 -0.53
16 -0.53
17 0.28
18 0.28
19 0.28
2 -0.43
20 0.28
21 0.56
23 0.09
24 0.63
25 0.05
26 0.47
27 0.09
28 0.09
29 0.08
3 -0.36
30 0.03
31 0.08
32 -0.15
33 -0.15
34 -0.15
35 -0.15
36 -0.15
37 -0.15
38 0.08
39 0.08
4 -0.68
40 0.08
41 0.08
42 0.08
43 0.08
44 0.08
5 -0.68
53 0.4
54 0.4
55 0.15
56 0.15
57 0.15
58 0.15
59 0.15
6 -0.16
60 0.15
61 0.45
62 0.45
63 0.45
64 0.45
65 0.45
66 0.45
67 0.45
68 0.45
7 -0.57
8 -0.57
9 -0.53

> <PUBCHEM_EFFECTIVE_ROTOR_COUNT>
7.2

> <PUBCHEM_PHARMACOPHORE_FEATURES>
22
1 1 acceptor
1 10 donor
1 11 donor
1 12 donor
1 13 donor
1 14 donor
1 15 donor
1 16 donor
1 3 acceptor
1 4 acceptor
1 4 donor
1 5 acceptor
1 5 donor
1 6 acceptor
1 7 acceptor
1 8 acceptor
1 9 donor
6 1 17 18 19 20 21 rings
6 27 29 31 34 37 38 rings
6 28 32 33 39 40 43 rings
6 30 35 36 41 42 44 rings
6 6 23 25 26 27 29 rings

> <PUBCHEM_HEAVY_ATOM_COUNT>
44

> <PUBCHEM_ATOM_DEF_STEREO_COUNT>
3

> <PUBCHEM_ATOM_UDEF_STEREO_COUNT>
2

> <PUBCHEM_BOND_DEF_STEREO_COUNT>
0

> <PUBCHEM_BOND_UDEF_STEREO_COUNT>
0

> <PUBCHEM_ISOTOPIC_ATOM_COUNT>
0

> <PUBCHEM_COMPONENT_COUNT>
1

> <PUBCHEM_CACTVS_TAUTO_COUNT>
1000

> <PUBCHEM_CONFORMER_ID>
02A3587A00000001

> <PUBCHEM_MMFF94_ENERGY>
136.8861

> <PUBCHEM_FEATURE_SELFOVERLAP>
111.77

> <PUBCHEM_SHAPE_FINGERPRINT>
10190108 129 18187939365376477210
105312 117 16917354770025672239
10675989 125 16822197205851937101
10794284 68 18265632033721502244
10939801 23 18411706516973576896
11297750 10 17693400848693310959
1200032 147 13038648227501388091
12156800 1 18044678419992956518
12422481 6 18272371949367150670
12677640 9 18120095241098221779
13383668 262 11646227367336904864
14068700 675 16298397837516056661
14840074 17 18413107268542552088
14856354 85 18115592685252898458
15064986 96 18342190942611638707
15274700 242 17749931294727385912
15276724 80 18408595955865866664
16110190 28 18408888459606573697
17974551 9 18118971527360471755
19319366 153 16895690255389950773
20764821 26 18195556820894045133
20775438 99 12183827616660717793
21033648 29 17631753637100664375
22121540 332 17487640540668470772
24771293 8 18271534105345392201
350125 39 18409725184626026368
5080951 261 17201607096682140430
5081480 168 13768220431905845581
513202 73 18261104115815091802
5171179 24 17341552751275313111
6009941 240 17022893537169824993

> <PUBCHEM_SHAPE_MULTIPOLES>
811.59
14.87
4.24
3.1
14.09
0.58
-2.48
2.63
15.38
-2.35
-2.17
-2.83
-0.89
-1

> <PUBCHEM_SHAPE_SELFOVERLAP>
1806.516

> <PUBCHEM_SHAPE_VOLUME>
426.1

> <PUBCHEM_COORDINATE_TYPE>
2
5
10

$$$$
