44144284
  -OEChem-01292204333D

106111  0     1  0  0  0  0  0999 V2000
    6.2434    1.4045   -2.1972 O   0  0  0  0  0  0  0  0  0  0  0  0
   -4.9849    1.2006   -0.4435 O   0  0  0  0  0  0  0  0  0  0  0  0
    7.8673   -0.7101   -1.7402 O   0  0  0  0  0  0  0  0  0  0  0  0
    8.8849   -1.7812    0.5664 O   0  0  0  0  0  0  0  0  0  0  0  0
    4.8527   -2.5493   -1.9935 O   0  0  0  0  0  0  0  0  0  0  0  0
   -3.1200    0.7096    2.4694 O   0  0  0  0  0  0  0  0  0  0  0  0
   -5.5599   -1.0600   -0.3998 O   0  0  0  0  0  0  0  0  0  0  0  0
   -7.5022    1.8434    0.6674 O   0  0  0  0  0  0  0  0  0  0  0  0
   -9.5480   -0.1767    0.0299 O   0  0  0  0  0  0  0  0  0  0  0  0
   -8.5647   -2.8256    0.7096 O   0  0  0  0  0  0  0  0  0  0  0  0
   -6.5123   -4.4177   -0.0203 O   0  0  0  0  0  0  0  0  0  0  0  0
   -5.0888   -3.3437   -1.4403 O   0  0  0  0  0  0  0  0  0  0  0  0
    1.7716    1.9342    0.0505 C   0  0  2  0  0  0  0  0  0  0  0  0
    0.8517    0.9554   -0.7900 C   0  0  2  0  0  0  0  0  0  0  0  0
   -0.6809    1.4203   -0.9571 C   0  0  2  0  0  0  0  0  0  0  0  0
    3.2974    1.3224    0.2370 C   0  0  1  0  0  0  0  0  0  0  0  0
   -1.2996    1.6864    0.4643 C   0  0  1  0  0  0  0  0  0  0  0  0
    1.0442    2.1547    1.4163 C   0  0  0  0  0  0  0  0  0  0  0  0
    3.3422   -0.2096    0.3537 C   0  0  0  0  0  0  0  0  0  0  0  0
    4.6896   -0.9497    0.3839 C   0  0  1  0  0  0  0  0  0  0  0  0
    5.5545   -0.5658   -0.8620 C   0  0  1  0  0  0  0  0  0  0  0  0
   -0.4187    2.6239    1.3085 C   0  0  0  0  0  0  0  0  0  0  0  0
   -2.8424    2.0162    0.4888 C   0  0  1  0  0  0  0  0  0  0  0  0
    4.2113    1.6561   -0.9862 C   0  0  0  0  0  0  0  0  0  0  0  0
    0.9083   -0.4774   -0.1932 C   0  0  0  0  0  0  0  0  0  0  0  0
   -1.5404    0.3071   -1.6385 C   0  0  0  0  0  0  0  0  0  0  0  0
    5.6076    0.9879   -0.9863 C   0  0  2  0  0  0  0  0  0  0  0  0
    1.9210    3.3318   -0.6207 C   0  0  0  0  0  0  0  0  0  0  0  0
   -3.6001    0.8932   -0.2822 C   0  0  2  0  0  0  0  0  0  0  0  0
    2.2486   -0.9692    0.2010 C   0  0  0  0  0  0  0  0  0  0  0  0
   -0.7316    2.6451   -1.9084 C   0  0  0  0  0  0  0  0  0  0  0  0
   -3.0402    0.6091   -1.6748 C   0  0  0  0  0  0  0  0  0  0  0  0
    3.9217    2.0007    1.4902 C   0  0  0  0  0  0  0  0  0  0  0  0
    5.4162   -0.8475    1.7389 C   0  0  0  0  0  0  0  0  0  0  0  0
    6.9697   -1.2292   -0.7550 C   0  0  2  0  0  0  0  0  0  0  0  0
    6.7752   -1.5749    1.7831 C   0  0  0  0  0  0  0  0  0  0  0  0
    7.6461   -1.0645    0.6119 C   0  0  1  0  0  0  0  0  0  0  0  0
    4.8932   -1.1533   -2.1476 C   0  0  0  0  0  0  0  0  0  0  0  0
   -3.3483    2.0006    1.9595 C   0  0  0  0  0  0  0  0  0  0  0  0
   -3.2041    3.4106   -0.0623 C   0  0  0  0  0  0  0  0  0  0  0  0
    7.4568   -1.2410    3.1298 C   0  0  0  0  0  0  0  0  0  0  0  0
    6.5792   -3.1054    1.7433 C   0  0  0  0  0  0  0  0  0  0  0  0
   -5.8101    0.2177    0.1804 C   0  0  2  0  0  0  0  0  0  0  0  0
   -7.2690    0.6222   -0.0336 C   0  0  1  0  0  0  0  0  0  0  0  0
   -8.2235   -0.4520    0.4884 C   0  0  2  0  0  0  0  0  0  0  0  0
   -6.3406   -2.0888    0.1975 C   0  0  1  0  0  0  0  0  0  0  0  0
   -7.8287   -1.8409   -0.0143 C   0  0  1  0  0  0  0  0  0  0  0  0
   -5.8955   -3.3202   -0.5227 C   0  0  0  0  0  0  0  0  0  0  0  0
    1.2850    0.8867   -1.7986 H   0  0  0  0  0  0  0  0  0  0  0  0
   -1.2335    0.7236    0.9862 H   0  0  0  0  0  0  0  0  0  0  0  0
    1.5653    2.9116    2.0135 H   0  0  0  0  0  0  0  0  0  0  0  0
    1.0719    1.2316    2.0082 H   0  0  0  0  0  0  0  0  0  0  0  0
    4.4721   -2.0223    0.2944 H   0  0  0  0  0  0  0  0  0  0  0  0
   -0.7930    2.6758    2.3356 H   0  0  0  0  0  0  0  0  0  0  0  0
   -0.4627    3.6479    0.9288 H   0  0  0  0  0  0  0  0  0  0  0  0
    4.3857    2.7382   -1.0449 H   0  0  0  0  0  0  0  0  0  0  0  0
    3.6934    1.4066   -1.9217 H   0  0  0  0  0  0  0  0  0  0  0  0
    0.5546   -1.1785   -0.9590 H   0  0  0  0  0  0  0  0  0  0  0  0
    0.2552   -0.6020    0.6736 H   0  0  0  0  0  0  0  0  0  0  0  0
   -1.4446   -0.6415   -1.1005 H   0  0  0  0  0  0  0  0  0  0  0  0
   -1.1785    0.1251   -2.6581 H   0  0  0  0  0  0  0  0  0  0  0  0
    6.2135    1.3939   -0.1706 H   0  0  0  0  0  0  0  0  0  0  0  0
    2.1379    3.2430   -1.6898 H   0  0  0  0  0  0  0  0  0  0  0  0
    2.7271    3.9177   -0.1680 H   0  0  0  0  0  0  0  0  0  0  0  0
    1.0477    3.9706   -0.5118 H   0  0  0  0  0  0  0  0  0  0  0  0
   -3.4735   -0.0457    0.2745 H   0  0  0  0  0  0  0  0  0  0  0  0
    2.3319   -2.0525    0.2625 H   0  0  0  0  0  0  0  0  0  0  0  0
   -0.7064    3.5975   -1.3790 H   0  0  0  0  0  0  0  0  0  0  0  0
   -1.6308    2.6774   -2.5271 H   0  0  0  0  0  0  0  0  0  0  0  0
    0.0923    2.6234   -2.6296 H   0  0  0  0  0  0  0  0  0  0  0  0
   -3.2763    1.4319   -2.3570 H   0  0  0  0  0  0  0  0  0  0  0  0
   -3.5625   -0.2551   -2.1058 H   0  0  0  0  0  0  0  0  0  0  0  0
    3.6819    3.0667    1.5467 H   0  0  0  0  0  0  0  0  0  0  0  0
    5.0122    1.9859    1.4918 H   0  0  0  0  0  0  0  0  0  0  0  0
    3.5743    1.5307    2.4172 H   0  0  0  0  0  0  0  0  0  0  0  0
    5.6108    0.1910    1.9988 H   0  0  0  0  0  0  0  0  0  0  0  0
    4.7589   -1.2349    2.5293 H   0  0  0  0  0  0  0  0  0  0  0  0
    6.9133   -2.3025   -0.9656 H   0  0  0  0  0  0  0  0  0  0  0  0
    7.9070   -0.0084    0.7560 H   0  0  0  0  0  0  0  0  0  0  0  0
    5.4811   -0.9204   -3.0418 H   0  0  0  0  0  0  0  0  0  0  0  0
    3.8741   -0.7925   -2.3085 H   0  0  0  0  0  0  0  0  0  0  0  0
   -4.4239    2.2039    2.0094 H   0  0  0  0  0  0  0  0  0  0  0  0
   -2.8534    2.7441    2.5896 H   0  0  0  0  0  0  0  0  0  0  0  0
   -4.2509    3.6595    0.1507 H   0  0  0  0  0  0  0  0  0  0  0  0
   -3.0947    3.4820   -1.1446 H   0  0  0  0  0  0  0  0  0  0  0  0
   -2.5963    4.1966    0.3961 H   0  0  0  0  0  0  0  0  0  0  0  0
    6.3193    2.3736   -2.1738 H   0  0  0  0  0  0  0  0  0  0  0  0
    6.8109   -1.5091    3.9740 H   0  0  0  0  0  0  0  0  0  0  0  0
    7.6767   -0.1704    3.2084 H   0  0  0  0  0  0  0  0  0  0  0  0
    8.3990   -1.7851    3.2550 H   0  0  0  0  0  0  0  0  0  0  0  0
    7.5343   -3.6324    1.8467 H   0  0  0  0  0  0  0  0  0  0  0  0
    6.1188   -3.4478    0.8127 H   0  0  0  0  0  0  0  0  0  0  0  0
    5.9342   -3.4366    2.5655 H   0  0  0  0  0  0  0  0  0  0  0  0
    8.7185   -1.1682   -1.6331 H   0  0  0  0  0  0  0  0  0  0  0  0
    9.4138   -1.5084    1.3347 H   0  0  0  0  0  0  0  0  0  0  0  0
    4.4462   -2.9187   -2.7956 H   0  0  0  0  0  0  0  0  0  0  0  0
   -5.5774    0.1922    1.2529 H   0  0  0  0  0  0  0  0  0  0  0  0
   -3.4509    0.6964    3.3835 H   0  0  0  0  0  0  0  0  0  0  0  0
   -7.4599    0.8242   -1.0943 H   0  0  0  0  0  0  0  0  0  0  0  0
   -8.2705   -0.4319    1.5836 H   0  0  0  0  0  0  0  0  0  0  0  0
   -6.0665   -2.1936    1.2546 H   0  0  0  0  0  0  0  0  0  0  0  0
   -8.0975   -1.9494   -1.0722 H   0  0  0  0  0  0  0  0  0  0  0  0
   -7.3278    1.6873    1.6113 H   0  0  0  0  0  0  0  0  0  0  0  0
   -9.5352   -0.1658   -0.9424 H   0  0  0  0  0  0  0  0  0  0  0  0
   -8.3303   -2.7464    1.6501 H   0  0  0  0  0  0  0  0  0  0  0  0
   -6.2343   -5.2377   -0.4816 H   0  0  0  0  0  0  0  0  0  0  0  0
  1 27  1  0  0  0  0
  1 87  1  0  0  0  0
  2 29  1  0  0  0  0
  2 43  1  0  0  0  0
  3 35  1  0  0  0  0
  3 94  1  0  0  0  0
  4 37  1  0  0  0  0
  4 95  1  0  0  0  0
  5 38  1  0  0  0  0
  5 96  1  0  0  0  0
  6 39  1  0  0  0  0
  6 98  1  0  0  0  0
  7 43  1  0  0  0  0
  7 46  1  0  0  0  0
  8 44  1  0  0  0  0
  8103  1  0  0  0  0
  9 45  1  0  0  0  0
  9104  1  0  0  0  0
 10 47  1  0  0  0  0
 10105  1  0  0  0  0
 11 48  1  0  0  0  0
 11106  1  0  0  0  0
 12 48  2  0  0  0  0
 13 14  1  0  0  0  0
 13 16  1  0  0  0  0
 13 18  1  0  0  0  0
 13 28  1  0  0  0  0
 14 15  1  0  0  0  0
 14 25  1  0  0  0  0
 14 49  1  0  0  0  0
 15 17  1  0  0  0  0
 15 26  1  0  0  0  0
 15 31  1  0  0  0  0
 16 19  1  0  0  0  0
 16 24  1  0  0  0  0
 16 33  1  0  0  0  0
 17 22  1  0  0  0  0
 17 23  1  0  0  0  0
 17 50  1  0  0  0  0
 18 22  1  0  0  0  0
 18 51  1  0  0  0  0
 18 52  1  0  0  0  0
 19 20  1  0  0  0  0
 19 30  2  0  0  0  0
 20 21  1  0  0  0  0
 20 34  1  0  0  0  0
 20 53  1  0  0  0  0
 21 27  1  0  0  0  0
 21 35  1  0  0  0  0
 21 38  1  0  0  0  0
 22 54  1  0  0  0  0
 22 55  1  0  0  0  0
 23 29  1  0  0  0  0
 23 39  1  0  0  0  0
 23 40  1  0  0  0  0
 24 27  1  0  0  0  0
 24 56  1  0  0  0  0
 24 57  1  0  0  0  0
 25 30  1  0  0  0  0
 25 58  1  0  0  0  0
 25 59  1  0  0  0  0
 26 32  1  0  0  0  0
 26 60  1  0  0  0  0
 26 61  1  0  0  0  0
 27 62  1  0  0  0  0
 28 63  1  0  0  0  0
 28 64  1  0  0  0  0
 28 65  1  0  0  0  0
 29 32  1  0  0  0  0
 29 66  1  0  0  0  0
 30 67  1  0  0  0  0
 31 68  1  0  0  0  0
 31 69  1  0  0  0  0
 31 70  1  0  0  0  0
 32 71  1  0  0  0  0
 32 72  1  0  0  0  0
 33 73  1  0  0  0  0
 33 74  1  0  0  0  0
 33 75  1  0  0  0  0
 34 36  1  0  0  0  0
 34 76  1  0  0  0  0
 34 77  1  0  0  0  0
 35 37  1  0  0  0  0
 35 78  1  0  0  0  0
 36 37  1  0  0  0  0
 36 41  1  0  0  0  0
 36 42  1  0  0  0  0
 37 79  1  0  0  0  0
 38 80  1  0  0  0  0
 38 81  1  0  0  0  0
 39 82  1  0  0  0  0
 39 83  1  0  0  0  0
 40 84  1  0  0  0  0
 40 85  1  0  0  0  0
 40 86  1  0  0  0  0
 41 88  1  0  0  0  0
 41 89  1  0  0  0  0
 41 90  1  0  0  0  0
 42 91  1  0  0  0  0
 42 92  1  0  0  0  0
 42 93  1  0  0  0  0
 43 44  1  0  0  0  0
 43 97  1  0  0  0  0
 44 45  1  0  0  0  0
 44 99  1  0  0  0  0
 45 47  1  0  0  0  0
 45100  1  0  0  0  0
 46 47  1  0  0  0  0
 46 48  1  0  0  0  0
 46101  1  0  0  0  0
 47102  1  0  0  0  0
M  END
> <PUBCHEM_COMPOUND_CID>
44144284

> <PUBCHEM_CONFORMER_RMSD>
1.2

> <PUBCHEM_CONFORMER_DIVERSEORDER>
10
5
6
13
9
15
1
3
11
14
7
8
16
12
4
2

> <PUBCHEM_MMFF94_PARTIAL_CHARGES>
39
1 -0.68
10 -0.68
103 0.4
104 0.4
105 0.4
106 0.5
11 -0.65
12 -0.57
16 0.14
19 -0.28
2 -0.56
20 0.14
25 0.14
27 0.28
29 0.28
3 -0.68
30 -0.29
35 0.28
37 0.28
38 0.28
39 0.28
4 -0.68
43 0.56
44 0.28
45 0.28
46 0.34
47 0.28
48 0.66
5 -0.68
6 -0.68
67 0.15
7 -0.56
8 -0.68
87 0.4
9 -0.68
94 0.4
95 0.4
96 0.4
98 0.4

> <PUBCHEM_EFFECTIVE_ROTOR_COUNT>
8.8

> <PUBCHEM_PHARMACOPHORE_FEATURES>
28
1 1 acceptor
1 1 donor
1 10 acceptor
1 10 donor
1 11 acceptor
1 12 acceptor
1 2 acceptor
1 3 acceptor
1 3 donor
1 4 acceptor
1 4 donor
1 5 acceptor
1 5 donor
1 6 acceptor
1 6 donor
1 7 acceptor
1 8 acceptor
1 8 donor
1 9 acceptor
1 9 donor
3 11 12 48 anion
3 36 41 42 hydrophobe
6 13 14 15 17 18 22 rings
6 13 14 16 19 25 30 rings
6 15 17 23 26 29 32 rings
6 16 19 20 21 24 27 rings
6 20 21 34 35 36 37 rings
6 7 43 44 45 46 47 rings

> <PUBCHEM_HEAVY_ATOM_COUNT>
48

> <PUBCHEM_ATOM_DEF_STEREO_COUNT>
15

> <PUBCHEM_ATOM_UDEF_STEREO_COUNT>
2

> <PUBCHEM_BOND_DEF_STEREO_COUNT>
0

> <PUBCHEM_BOND_UDEF_STEREO_COUNT>
0

> <PUBCHEM_ISOTOPIC_ATOM_COUNT>
0

> <PUBCHEM_COMPONENT_COUNT>
1

> <PUBCHEM_CACTVS_TAUTO_COUNT>
1

> <PUBCHEM_CONFORMER_ID>
02A1969C0000000A

> <PUBCHEM_MMFF94_ENERGY>
215.3906

> <PUBCHEM_FEATURE_SELFOVERLAP>
142.406

> <PUBCHEM_SHAPE_FINGERPRINT>
11135609 12 18202844365728215532
11135609 99 18343020017075148085
117089 54 17629783192147102790
11963148 33 18262228911968632490
11991303 11 14418137353101666057
12120059 9 18199446922923892167
12522641 68 17320121045474689325
13782708 43 18259980483160084877
13811026 1 18272931622682440337
14068700 675 18408324393489656417
15198563 99 15140954007430054367
15230672 131 18411135841006894763
15352257 5 18408886256768476559
15361156 5 17968104144522392645
18393751 57 13758070788235527461
18603816 31 18333728027466905123
18608769 82 18413388743561435062
19303781 99 18339628031855680703
19841028 212 18409447024567307800
20105231 36 17560806511310016134
2026 5 17532362072617265706
20511986 3 11963389691002643884
21033648 29 12823297926549573100
21781051 124 18272940431581470990
21792934 111 17275099501427954201
21792938 703 18337685126982038522
21814621 53 16844737400447112674
22149856 69 17703519796079435848
23522609 53 18044967643007468020
23569914 152 12831695889504601456
23569917 315 18191586355658659682
23576562 1 13407376130866634699
2747138 104 17918273130478493696
3383291 50 18202843253722628199
397638 26 17274823584355176431
4169191 19 11024108750581378379
439807 62 18260265252487416447
4461854 278 17275100644200342606
44802255 64 12179848303981254993
4516262 110 11383845827466231137
45377200 153 18342187656809287070
504579 68 13551193269032831104
6081469 158 17822007593305916397
9831232 110 18410012100434419767
9896288 288 17845380947059621897
9962374 69 17822006489937229786

> <PUBCHEM_SHAPE_MULTIPOLES>
917.39
27.62
3.97
2.05
17.45
1.61
0.36
24.36
3.85
4.23
0.05
-3.65
0.1
-2.29

> <PUBCHEM_SHAPE_SELFOVERLAP>
1950.76

> <PUBCHEM_SHAPE_VOLUME>
502.3

> <PUBCHEM_COORDINATE_TYPE>
2
5
10

$$$$
