9909368
  -OEChem-01112201003D

 53 58  0     1  0  0  0  0  0999 V2000
   -0.3619    0.4613   -1.6623 O   0  0  0  0  0  0  0  0  0  0  0  0
    0.4054    2.7188    0.7463 O   0  0  0  0  0  0  0  0  0  0  0  0
    0.1245   -1.8592   -1.5317 O   0  0  0  0  0  0  0  0  0  0  0  0
   -3.3112   -0.4818    1.6272 O   0  0  0  0  0  0  0  0  0  0  0  0
   -2.9815    1.9732   -0.1174 O   0  0  0  0  0  0  0  0  0  0  0  0
    1.6140   -2.0382    1.6574 O   0  0  0  0  0  0  0  0  0  0  0  0
   -0.5897    3.2864   -1.2294 O   0  0  0  0  0  0  0  0  0  0  0  0
    0.2320   -3.7387   -0.2222 O   0  0  0  0  0  0  0  0  0  0  0  0
   -4.8075   -1.5935    0.2970 O   0  0  0  0  0  0  0  0  0  0  0  0
    0.1216    0.3448    0.6837 C   0  0  2  0  0  0  0  0  0  0  0  0
    1.2534   -0.3649   -0.0902 C   0  0  2  0  0  0  0  0  0  0  0  0
   -0.7280    1.0040   -0.4018 C   0  0  2  0  0  0  0  0  0  0  0  0
    0.7521    1.5143    1.4434 C   0  0  1  0  0  0  0  0  0  0  0  0
    2.4246    0.6529   -0.0349 C   0  0  1  0  0  0  0  0  0  0  0  0
   -2.2079    0.7820   -0.0286 C   0  0  1  0  0  0  0  0  0  0  0  0
   -0.8654   -0.4505    1.5422 C   0  0  0  0  0  0  0  0  0  0  0  0
    0.6635   -0.5273   -1.4831 C   0  0  2  0  0  0  0  0  0  0  0  0
    2.2564    1.2989    1.3416 C   0  0  0  0  0  0  0  0  0  0  0  0
   -2.1640    0.3433    1.4258 C   0  0  2  0  0  0  0  0  0  0  0  0
    1.6108   -1.7981    0.2766 C   0  0  2  0  0  0  0  0  0  0  0  0
   -0.3154    2.4544   -0.3774 C   0  0  0  0  0  0  0  0  0  0  0  0
    3.8344    0.1152   -0.2390 C   0  0  0  0  0  0  0  0  0  0  0  0
   -2.9412   -0.3818   -0.7008 C   0  0  1  0  0  0  0  0  0  0  0  0
    0.5878   -2.6001   -0.4811 C   0  0  0  0  0  0  0  0  0  0  0  0
   -3.8177   -0.8884    0.4218 C   0  0  0  0  0  0  0  0  0  0  0  0
    4.8584    1.2536   -0.0777 C   0  0  0  0  0  0  0  0  0  0  0  0
    4.1338   -0.9801    0.8009 C   0  0  0  0  0  0  0  0  0  0  0  0
    3.9682   -0.4835   -1.6511 C   0  0  0  0  0  0  0  0  0  0  0  0
   -3.7494   -0.0169   -1.9353 C   0  0  0  0  0  0  0  0  0  0  0  0
    0.4284    1.6159    2.4838 H   0  0  0  0  0  0  0  0  0  0  0  0
    2.2511    1.4298   -0.7947 H   0  0  0  0  0  0  0  0  0  0  0  0
   -0.5489   -0.5399    2.5869 H   0  0  0  0  0  0  0  0  0  0  0  0
   -1.0232   -1.4703    1.1814 H   0  0  0  0  0  0  0  0  0  0  0  0
    1.3710   -0.4261   -2.3081 H   0  0  0  0  0  0  0  0  0  0  0  0
    2.5710    0.6709    2.1764 H   0  0  0  0  0  0  0  0  0  0  0  0
    2.7874    2.2541    1.4088 H   0  0  0  0  0  0  0  0  0  0  0  0
   -2.2002    1.1845    2.1271 H   0  0  0  0  0  0  0  0  0  0  0  0
    2.4968   -2.2058   -0.1907 H   0  0  0  0  0  0  0  0  0  0  0  0
   -2.2598   -1.2034   -0.9399 H   0  0  0  0  0  0  0  0  0  0  0  0
   -3.8445    1.8129    0.3009 H   0  0  0  0  0  0  0  0  0  0  0  0
    4.6142    2.1009   -0.7285 H   0  0  0  0  0  0  0  0  0  0  0  0
    5.8662    0.9165   -0.3484 H   0  0  0  0  0  0  0  0  0  0  0  0
    4.9141    1.6209    0.9525 H   0  0  0  0  0  0  0  0  0  0  0  0
    4.2131   -1.9966    0.4051 H   0  0  0  0  0  0  0  0  0  0  0  0
    3.5880   -0.9488    1.7390 H   0  0  0  0  0  0  0  0  0  0  0  0
    5.1702   -0.8299    1.1451 H   0  0  0  0  0  0  0  0  0  0  0  0
    3.3483   -1.3606   -1.8392 H   0  0  0  0  0  0  0  0  0  0  0  0
    5.0033   -0.7993   -1.8318 H   0  0  0  0  0  0  0  0  0  0  0  0
    3.7278    0.2653   -2.4149 H   0  0  0  0  0  0  0  0  0  0  0  0
   -3.1170    0.4621   -2.6891 H   0  0  0  0  0  0  0  0  0  0  0  0
   -4.1866   -0.9159   -2.3839 H   0  0  0  0  0  0  0  0  0  0  0  0
   -4.5806    0.6560   -1.6988 H   0  0  0  0  0  0  0  0  0  0  0  0
    1.8430   -2.9730    1.7953 H   0  0  0  0  0  0  0  0  0  0  0  0
  1 12  1  0  0  0  0
  1 17  1  0  0  0  0
  2 13  1  0  0  0  0
  2 21  1  0  0  0  0
  3 17  1  0  0  0  0
  3 24  1  0  0  0  0
  4 19  1  0  0  0  0
  4 25  1  0  0  0  0
  5 15  1  0  0  0  0
  5 40  1  0  0  0  0
  6 20  1  0  0  0  0
  6 53  1  0  0  0  0
  7 21  2  0  0  0  0
  8 24  2  0  0  0  0
  9 25  2  0  0  0  0
 10 11  1  0  0  0  0
 10 12  1  0  0  0  0
 10 13  1  0  0  0  0
 10 16  1  0  0  0  0
 11 14  1  0  0  0  0
 11 17  1  0  0  0  0
 11 20  1  0  0  0  0
 12 15  1  0  0  0  0
 12 21  1  0  0  0  0
 13 18  1  0  0  0  0
 13 30  1  0  0  0  0
 14 18  1  0  0  0  0
 14 22  1  0  0  0  0
 14 31  1  0  0  0  0
 15 19  1  0  0  0  0
 15 23  1  0  0  0  0
 16 19  1  0  0  0  0
 16 32  1  0  0  0  0
 16 33  1  0  0  0  0
 17 34  1  0  0  0  0
 18 35  1  0  0  0  0
 18 36  1  0  0  0  0
 19 37  1  0  0  0  0
 20 24  1  0  0  0  0
 20 38  1  0  0  0  0
 22 26  1  0  0  0  0
 22 27  1  0  0  0  0
 22 28  1  0  0  0  0
 23 25  1  0  0  0  0
 23 29  1  0  0  0  0
 23 39  1  0  0  0  0
 26 41  1  0  0  0  0
 26 42  1  0  0  0  0
 26 43  1  0  0  0  0
 27 44  1  0  0  0  0
 27 45  1  0  0  0  0
 27 46  1  0  0  0  0
 28 47  1  0  0  0  0
 28 48  1  0  0  0  0
 28 49  1  0  0  0  0
 29 50  1  0  0  0  0
 29 51  1  0  0  0  0
 29 52  1  0  0  0  0
M  END
> <PUBCHEM_COMPOUND_CID>
9909368

> <PUBCHEM_CONFORMER_RMSD>
0.8

> <PUBCHEM_CONFORMER_DIVERSEORDER>
1

> <PUBCHEM_MMFF94_PARTIAL_CHARGES>
21
1 -0.56
12 0.34
13 0.28
15 0.28
17 0.56
19 0.28
2 -0.43
20 0.34
21 0.66
23 0.06
24 0.66
25 0.66
3 -0.43
4 -0.43
40 0.4
5 -0.68
53 0.4
6 -0.68
7 -0.57
8 -0.57
9 -0.57

> <PUBCHEM_EFFECTIVE_ROTOR_COUNT>
2.8

> <PUBCHEM_PHARMACOPHORE_FEATURES>
15
1 1 acceptor
1 5 acceptor
1 5 donor
1 6 acceptor
1 6 donor
1 7 acceptor
1 8 acceptor
1 9 acceptor
4 22 26 27 28 hydrophobe
5 1 10 11 12 17 rings
5 10 11 13 14 18 rings
5 10 12 15 16 19 rings
5 2 10 12 13 21 rings
5 3 11 17 20 24 rings
5 4 15 19 23 25 rings

> <PUBCHEM_HEAVY_ATOM_COUNT>
29

> <PUBCHEM_ATOM_DEF_STEREO_COUNT>
10

> <PUBCHEM_ATOM_UDEF_STEREO_COUNT>
0

> <PUBCHEM_BOND_DEF_STEREO_COUNT>
0

> <PUBCHEM_BOND_UDEF_STEREO_COUNT>
0

> <PUBCHEM_ISOTOPIC_ATOM_COUNT>
0

> <PUBCHEM_COMPONENT_COUNT>
1

> <PUBCHEM_CACTVS_TAUTO_COUNT>
6

> <PUBCHEM_CONFORMER_ID>
0097347800000001

> <PUBCHEM_MMFF94_ENERGY>
132.1162

> <PUBCHEM_FEATURE_SELFOVERLAP>
79.497

> <PUBCHEM_SHAPE_FINGERPRINT>
10076449 9 17773620341778519334
10863032 1 17822287933846641378
10906281 52 18116174249810592009
10948715 1 18335701590012686864
1100329 8 18123751121353940162
11370993 70 16877939442891234602
11578080 2 16881038794534527022
12011746 2 18410294752306145471
12035758 1 18269556220479337674
12788726 201 16841913772862014385
12969540 114 18263073461283121172
13140716 1 17981318216133430890
13224815 77 18410859828352618388
13583140 156 17386005130560711760
13911987 19 18262807375052939084
13965767 371 16194857845809804059
14223421 5 18193841435897670510
14787075 74 17988082308867855336
14790565 3 18341341066730276104
14955137 171 17702966827513952625
15209289 33 17917717928086885202
16945 1 17967819336012555336
17349148 13 17312830346572233990
17492 54 18340199799535073252
17980427 23 17458639924826606660
1813 80 18270697435981575332
18981168 100 13109246661617714506
19591789 44 18413668015541896782
20028762 73 17702101572241401535
20691752 17 18197189624797797806
20905425 154 18265332811470107250
21421861 104 17901394398278044851
22393880 68 18130207303688356573
23227448 37 18122913294301222836
23419403 2 16526316590527228147
23559900 14 17976251349147409554
296302 2 17167867447768461350
3493558 16 17022900142587304612
6669772 16 17541399263206810028
70251023 43 17983862168519123015

> <PUBCHEM_SHAPE_MULTIPOLES>
543.98
6.97
2.86
1.66
0.35
0.36
0.12
0.82
0.4
0.14
0.2
-0.33
0.05
0.33

> <PUBCHEM_SHAPE_SELFOVERLAP>
1247.263

> <PUBCHEM_SHAPE_VOLUME>
285.8

> <PUBCHEM_COORDINATE_TYPE>
2
5
10

$$$$
