5318685
  -OEChem-01212203263D

 51 52  0     1  0  0  0  0  0999 V2000
    1.9976    0.7850    0.5160 O   0  0  0  0  0  0  0  0  0  0  0  0
   -0.6419   -1.7999   -1.1726 O   0  0  0  0  0  0  0  0  0  0  0  0
    0.9849    1.6707   -1.3573 O   0  0  0  0  0  0  0  0  0  0  0  0
   -2.5111    2.0490    2.0284 O   0  0  0  0  0  0  0  0  0  0  0  0
   -3.0130   -2.3630   -2.0351 O   0  0  0  0  0  0  0  0  0  0  0  0
   -4.9600    1.6069    1.2636 O   0  0  0  0  0  0  0  0  0  0  0  0
    1.2690   -0.4258    0.3447 C   0  0  2  0  0  0  0  0  0  0  0  0
   -0.1956   -0.1145    0.4112 C   0  0  0  0  0  0  0  0  0  0  0  0
    1.7288   -1.4717    1.3676 C   0  0  0  0  0  0  0  0  0  0  0  0
    4.0308    2.8608   -0.7462 C   0  0  0  0  0  0  0  0  0  0  0  0
    2.6330    2.9606   -0.1160 C   0  0  0  0  0  0  0  0  0  0  0  0
   -1.1016   -0.9226   -0.4501 C   0  0  0  0  0  0  0  0  0  0  0  0
   -2.5486   -0.6316   -0.3990 C   0  0  0  0  0  0  0  0  0  0  0  0
   -3.0440    0.3720    0.4350 C   0  0  0  0  0  0  0  0  0  0  0  0
   -0.6869    0.8440    1.2049 C   0  0  0  0  0  0  0  0  0  0  0  0
    1.7587    1.7611   -0.4142 C   0  0  0  0  0  0  0  0  0  0  0  0
   -2.1281    1.1589    1.2789 C   0  0  0  0  0  0  0  0  0  0  0  0
    3.2158   -1.7166    1.3680 C   0  0  0  0  0  0  0  0  0  0  0  0
    4.7721    1.6096   -0.2683 C   0  0  0  0  0  0  0  0  0  0  0  0
    3.9178    2.8436   -2.2719 C   0  0  0  0  0  0  0  0  0  0  0  0
   -3.4297   -1.3716   -1.1966 C   0  0  0  0  0  0  0  0  0  0  0  0
   -4.4178    0.6373    0.4734 C   0  0  0  0  0  0  0  0  0  0  0  0
    3.8989   -2.6555    0.6860 C   0  0  0  0  0  0  0  0  0  0  0  0
   -4.7988   -1.1051   -1.1565 C   0  0  0  0  0  0  0  0  0  0  0  0
   -5.2918   -0.1028   -0.3232 C   0  0  0  0  0  0  0  0  0  0  0  0
    5.3883   -2.8475    0.7305 C   0  0  0  0  0  0  0  0  0  0  0  0
    3.1730   -3.6317   -0.2011 C   0  0  0  0  0  0  0  0  0  0  0  0
    1.5315   -0.8025   -0.6535 H   0  0  0  0  0  0  0  0  0  0  0  0
    1.1692   -2.4056    1.2442 H   0  0  0  0  0  0  0  0  0  0  0  0
    1.4773   -1.1201    2.3781 H   0  0  0  0  0  0  0  0  0  0  0  0
    4.6044    3.7462   -0.4463 H   0  0  0  0  0  0  0  0  0  0  0  0
    2.1083    3.8541   -0.4757 H   0  0  0  0  0  0  0  0  0  0  0  0
    2.7083    3.0775    0.9722 H   0  0  0  0  0  0  0  0  0  0  0  0
   -0.0459    1.4313    1.8553 H   0  0  0  0  0  0  0  0  0  0  0  0
    3.7892   -1.0299    1.9895 H   0  0  0  0  0  0  0  0  0  0  0  0
    4.3312    0.6884   -0.6618 H   0  0  0  0  0  0  0  0  0  0  0  0
    5.8136    1.6377   -0.6078 H   0  0  0  0  0  0  0  0  0  0  0  0
    4.7834    1.5533    0.8252 H   0  0  0  0  0  0  0  0  0  0  0  0
    3.4165    1.9427   -2.6401 H   0  0  0  0  0  0  0  0  0  0  0  0
    3.3629    3.7161   -2.6326 H   0  0  0  0  0  0  0  0  0  0  0  0
    4.9141    2.8739   -2.7266 H   0  0  0  0  0  0  0  0  0  0  0  0
   -5.4884   -1.6751   -1.7736 H   0  0  0  0  0  0  0  0  0  0  0  0
   -6.3599    0.0972   -0.3004 H   0  0  0  0  0  0  0  0  0  0  0  0
    5.6333   -3.8525    1.0884 H   0  0  0  0  0  0  0  0  0  0  0  0
    5.8209   -2.7140   -0.2662 H   0  0  0  0  0  0  0  0  0  0  0  0
    5.8668   -2.1267    1.4018 H   0  0  0  0  0  0  0  0  0  0  0  0
    2.1266   -3.3816   -0.3888 H   0  0  0  0  0  0  0  0  0  0  0  0
    3.6585   -3.6730   -1.1828 H   0  0  0  0  0  0  0  0  0  0  0  0
    3.2088   -4.6342    0.2379 H   0  0  0  0  0  0  0  0  0  0  0  0
   -2.0508   -2.4676   -1.9920 H   0  0  0  0  0  0  0  0  0  0  0  0
   -4.2706    2.0613    1.7709 H   0  0  0  0  0  0  0  0  0  0  0  0
  1  7  1  0  0  0  0
  1 16  1  0  0  0  0
  2 12  2  0  0  0  0
  3 16  2  0  0  0  0
  4 17  2  0  0  0  0
  5 21  1  0  0  0  0
  5 50  1  0  0  0  0
  6 22  1  0  0  0  0
  6 51  1  0  0  0  0
  7  8  1  0  0  0  0
  7  9  1  0  0  0  0
  7 28  1  0  0  0  0
  8 12  1  0  0  0  0
  8 15  2  0  0  0  0
  9 18  1  0  0  0  0
  9 29  1  0  0  0  0
  9 30  1  0  0  0  0
 10 11  1  0  0  0  0
 10 19  1  0  0  0  0
 10 20  1  0  0  0  0
 10 31  1  0  0  0  0
 11 16  1  0  0  0  0
 11 32  1  0  0  0  0
 11 33  1  0  0  0  0
 12 13  1  0  0  0  0
 13 14  1  0  0  0  0
 13 21  2  0  0  0  0
 14 17  1  0  0  0  0
 14 22  2  0  0  0  0
 15 17  1  0  0  0  0
 15 34  1  0  0  0  0
 18 23  2  0  0  0  0
 18 35  1  0  0  0  0
 19 36  1  0  0  0  0
 19 37  1  0  0  0  0
 19 38  1  0  0  0  0
 20 39  1  0  0  0  0
 20 40  1  0  0  0  0
 20 41  1  0  0  0  0
 21 24  1  0  0  0  0
 22 25  1  0  0  0  0
 23 26  1  0  0  0  0
 23 27  1  0  0  0  0
 24 25  2  0  0  0  0
 24 42  1  0  0  0  0
 25 43  1  0  0  0  0
 26 44  1  0  0  0  0
 26 45  1  0  0  0  0
 26 46  1  0  0  0  0
 27 47  1  0  0  0  0
 27 48  1  0  0  0  0
 27 49  1  0  0  0  0
M  END
> <PUBCHEM_COMPOUND_CID>
5318685

> <PUBCHEM_CONFORMER_RMSD>
0.8

> <PUBCHEM_CONFORMER_DIVERSEORDER>
1
33
56
127
80
151
64
178
164
134
166
149
150
147
87
10
136
36
148
94
171
71
7
177
157
34
97
153
168
53
159
106
122
74
22
98
125
132
130
58
41
18
92
14
175
141
154
9
156
51
78
158
115
52
40
20
102
72
13
176
60
109
30
104
167
103
155
162
129
88
126
160
113
68
50
48
90
99
12
135
16
83
49
163
24
77
169
93
100
79
25
145
91
140
120
67
19
138
70
23
131
124
65
170
143
86
75
137
47
89
44
101
62
144
112
45
117
73
26
105
42
63
95
165
172
2
35
43
55
107
82
59
29
121
139
66
15
133
17
6
111
110
173
4
11
174
76
146
96
21
54
8
61
27
116
46
31
69
81
108
5
28
84
118
57
123
38
37
142
152
32
39
128
161
119
85
3
114

> <PUBCHEM_MMFF94_PARTIAL_CHARGES>
30
1 -0.43
11 0.06
12 0.47
13 0.09
14 0.09
15 -0.14
16 0.66
17 0.47
18 -0.29
2 -0.57
21 0.08
22 0.08
23 -0.28
24 -0.15
25 -0.15
26 0.14
27 0.14
3 -0.57
34 0.15
35 0.15
4 -0.57
42 0.15
43 0.15
5 -0.53
50 0.45
51 0.45
6 -0.53
7 0.42
8 -0.12
9 0.14

> <PUBCHEM_EFFECTIVE_ROTOR_COUNT>
7

> <PUBCHEM_PHARMACOPHORE_FEATURES>
9
1 2 acceptor
1 3 acceptor
1 4 acceptor
1 5 donor
1 6 donor
3 10 19 20 hydrophobe
3 23 26 27 hydrophobe
6 13 14 21 22 24 25 rings
6 8 12 13 14 15 17 rings

> <PUBCHEM_HEAVY_ATOM_COUNT>
27

> <PUBCHEM_ATOM_DEF_STEREO_COUNT>
1

> <PUBCHEM_ATOM_UDEF_STEREO_COUNT>
0

> <PUBCHEM_BOND_DEF_STEREO_COUNT>
0

> <PUBCHEM_BOND_UDEF_STEREO_COUNT>
0

> <PUBCHEM_ISOTOPIC_ATOM_COUNT>
0

> <PUBCHEM_COMPONENT_COUNT>
1

> <PUBCHEM_CACTVS_TAUTO_COUNT>
12

> <PUBCHEM_CONFORMER_ID>
0051281D00000001

> <PUBCHEM_MMFF94_ENERGY>
63.1476

> <PUBCHEM_FEATURE_SELFOVERLAP>
45.692

> <PUBCHEM_SHAPE_FINGERPRINT>
10369192 42 16881069873028917044
10759866 29 18340768238488372879
11049842 53 17056989289309325557
11135609 187 18262516035206742532
11578080 2 17024338342382269458
12035759 4 18343023341089775740
12107183 9 18124597479346669769
12236239 1 18341891879042023010
12553582 1 18043517322898383194
12788726 201 17918283060442830177
13009979 54 18201156559645205706
133893 2 18186809084391696588
13540713 5 18343019999837237075
13590594 115 18116432531768861880
14117953 113 17983857779463453413
14739800 52 17773862263800677456
15664445 248 18269001890948045446
15842332 3 18200607924765248817
17818456 19 17988079963625808145
1813 80 18191584155991071890
20511986 3 18271513286483691804
20612939 158 18334288769068378303
20642791 178 18342742879741560851
21033648 29 17483652543037453465
21781055 127 16915682288791571969
23557571 272 16200159789257349433
23559900 14 18339629096939271147
23598291 2 18411416181025250675
25147074 1 18272093777320576297
266924 1 18342458174690604144
312423 11 18412545414175004595
3633792 109 18263344963704518623
474 4 18115027540560379368
5081480 168 17677051239620775236
6034566 193 17172382231802518292
67856867 119 18342451556415111040
6823239 73 14851899044712485518
9841814 1 17822557323255036090
9981440 41 17906161107654930352

> <PUBCHEM_SHAPE_MULTIPOLES>
520.43
11.28
3.96
1.67
3.16
0.49
-0.24
1.02
-1.02
-7.49
-0.85
0.61
-0.34
-3.95

> <PUBCHEM_SHAPE_SELFOVERLAP>
1100.931

> <PUBCHEM_SHAPE_VOLUME>
288.9

> <PUBCHEM_COORDINATE_TYPE>
2
5
10

$$$$
