11063054
  -OEChem-01082214423D

 31 30  0     0  0  0  0  0  0999 V2000
    5.1832    0.6032    0.0405 O   0  0  0  0  0  0  0  0  0  0  0  0
    4.1301   -1.4481   -0.0164 O   0  0  0  0  0  0  0  0  0  0  0  0
   -1.0006   -0.1681   -0.0875 C   0  0  0  0  0  0  0  0  0  0  0  0
    0.2958    0.6472   -0.0525 C   0  0  0  0  0  0  0  0  0  0  0  0
   -2.2626    0.6954   -0.0265 C   0  0  0  0  0  0  0  0  0  0  0  0
    1.5586   -0.2214   -0.0386 C   0  0  0  0  0  0  0  0  0  0  0  0
   -3.5248   -0.1697    0.0095 C   0  0  0  0  0  0  0  0  0  0  0  0
    2.8394    0.6142   -0.0118 C   0  0  0  0  0  0  0  0  0  0  0  0
   -4.7883    0.6904    0.0381 C   0  0  0  0  0  0  0  0  0  0  0  0
    4.0980   -0.2251   -0.0065 C   0  0  0  0  0  0  0  0  0  0  0  0
   -5.9975   -0.1443    0.0362 C   0  0  0  0  0  0  0  0  0  0  0  0
    6.4561   -0.0500    0.0809 C   0  0  0  0  0  0  0  0  0  0  0  0
   -6.9873   -0.8237    0.0347 C   0  0  0  0  0  0  0  0  0  0  0  0
   -1.0188   -0.7767   -1.0000 H   0  0  0  0  0  0  0  0  0  0  0  0
   -1.0025   -0.8666    0.7588 H   0  0  0  0  0  0  0  0  0  0  0  0
    0.2935    1.2878    0.8381 H   0  0  0  0  0  0  0  0  0  0  0  0
    0.3231    1.3141   -0.9230 H   0  0  0  0  0  0  0  0  0  0  0  0
   -2.2297    1.3319    0.8659 H   0  0  0  0  0  0  0  0  0  0  0  0
   -2.2912    1.3602   -0.8981 H   0  0  0  0  0  0  0  0  0  0  0  0
    1.5364   -0.8849    0.8349 H   0  0  0  0  0  0  0  0  0  0  0  0
    1.5639   -0.8706   -0.9232 H   0  0  0  0  0  0  0  0  0  0  0  0
   -3.5001   -0.8234    0.8909 H   0  0  0  0  0  0  0  0  0  0  0  0
   -3.5439   -0.8266   -0.8698 H   0  0  0  0  0  0  0  0  0  0  0  0
    2.8460    1.2403    0.8878 H   0  0  0  0  0  0  0  0  0  0  0  0
    2.8704    1.2630   -0.8946 H   0  0  0  0  0  0  0  0  0  0  0  0
   -4.8047    1.3561   -0.8328 H   0  0  0  0  0  0  0  0  0  0  0  0
   -4.7835    1.3278    0.9299 H   0  0  0  0  0  0  0  0  0  0  0  0
    7.2320    0.7194    0.1160 H   0  0  0  0  0  0  0  0  0  0  0  0
    6.6007   -0.6537   -0.8202 H   0  0  0  0  0  0  0  0  0  0  0  0
    6.5352   -0.6699    0.9790 H   0  0  0  0  0  0  0  0  0  0  0  0
   -7.8652   -1.4265    0.0334 H   0  0  0  0  0  0  0  0  0  0  0  0
  1 10  1  0  0  0  0
  1 12  1  0  0  0  0
  2 10  2  0  0  0  0
  3  4  1  0  0  0  0
  3  5  1  0  0  0  0
  3 14  1  0  0  0  0
  3 15  1  0  0  0  0
  4  6  1  0  0  0  0
  4 16  1  0  0  0  0
  4 17  1  0  0  0  0
  5  7  1  0  0  0  0
  5 18  1  0  0  0  0
  5 19  1  0  0  0  0
  6  8  1  0  0  0  0
  6 20  1  0  0  0  0
  6 21  1  0  0  0  0
  7  9  1  0  0  0  0
  7 22  1  0  0  0  0
  7 23  1  0  0  0  0
  8 10  1  0  0  0  0
  8 24  1  0  0  0  0
  8 25  1  0  0  0  0
  9 11  1  0  0  0  0
  9 26  1  0  0  0  0
  9 27  1  0  0  0  0
 11 13  3  0  0  0  0
 12 28  1  0  0  0  0
 12 29  1  0  0  0  0
 12 30  1  0  0  0  0
 13 31  1  0  0  0  0
M  END
> <PUBCHEM_COMPOUND_CID>
11063054

> <PUBCHEM_CONFORMER_RMSD>
0.8

> <PUBCHEM_CONFORMER_DIVERSEORDER>
1
76
88
223
9
85
121
171
16
229
3
194
63
104
75
107
209
129
197
42
18
155
108
156
227
71
8
131
111
79
40
212
6
110
47
80
58
132
5
208
201
28
219
39
70
134
157
27
11
91
81
184
34
65
216
72
128
158
137
174
126
118
218
23
123
109
10
177
32
220
48
151
78
22
99
50
205
120
86
31
55
15
192
69
57
207
74
153
211
77
140
203
230
4
93
2
222
41
13
46
17
206
67
64
35
214
150
175
62
30
54
200
168
82
36
51
124
83
19
176
196
170
89
37
215
180
122
164
92
12
44
202
213
114
141
224
29
60
14
217
226
106
145
173
90
68
138
87
179
183
191
33
210
7
187
101
94
52
225
61
100
103
115
136
53
113
73
96
84
154
143
49
125
139
117
66
195
188
43
127
56
97
163
38
26
190
24
21
135
45
221
149
160
172
204
161
95
147
133
112
193
152
102
59
159
20
198
130
178
186
105
144
142
182
25
199
119
189
181
165
148
228
146
167
166
169
185
116
98
162

> <PUBCHEM_MMFF94_PARTIAL_CHARGES>
9
1 -0.43
10 0.66
11 -0.2
12 0.28
13 -0.18
2 -0.57
31 0.18
8 0.06
9 0.2

> <PUBCHEM_EFFECTIVE_ROTOR_COUNT>
8

> <PUBCHEM_PHARMACOPHORE_FEATURES>
2
1 13 hydrophobe
1 2 acceptor

> <PUBCHEM_HEAVY_ATOM_COUNT>
13

> <PUBCHEM_ATOM_DEF_STEREO_COUNT>
0

> <PUBCHEM_ATOM_UDEF_STEREO_COUNT>
0

> <PUBCHEM_BOND_DEF_STEREO_COUNT>
0

> <PUBCHEM_BOND_UDEF_STEREO_COUNT>
0

> <PUBCHEM_ISOTOPIC_ATOM_COUNT>
0

> <PUBCHEM_COMPONENT_COUNT>
1

> <PUBCHEM_CACTVS_TAUTO_COUNT>
1

> <PUBCHEM_CONFORMER_ID>
00A8CF0E00000001

> <PUBCHEM_MMFF94_ENERGY>
5.3972

> <PUBCHEM_FEATURE_SELFOVERLAP>
10.148

> <PUBCHEM_SHAPE_FINGERPRINT>
12091667 2 17458345235132012381
12714333 28 11674877797098082493
13533116 47 13470417625807509828
14123238 8 18130788949259785981
1420 363 18335425673182521723
14251718 22 18333449837591269985
14251732 16 18413107290275799449
14251764 18 18341894099471490986
14251764 46 18410572889934790657
14729087 3 10231763267100061939
15048467 5 9511464420682833295
17834072 33 18341611538163479557
17834072 8 15574714712079187861
17834076 25 18410855464423148580
20645477 70 18337953368900590566
21130983 4 13254794659362874922
220451 1 14476960082066925965
22896161 15 18410855494878244815
23402539 116 18131345302671137005
23521765 1 18341895194656548357
29717793 49 12685090363394803850
42788 4 18410856555424144941
57483677 66 18410290311747882695
57583515 80 12107785203483477285
8209 1 18333731325706044653

> <PUBCHEM_SHAPE_MULTIPOLES>
255.8
18.8
0.95
0.6
5.35
0.12
0
3.18
0.59
-0.08
0
0.07
-0.01
0.02

> <PUBCHEM_SHAPE_SELFOVERLAP>
469.799

> <PUBCHEM_SHAPE_VOLUME>
161.3

> <PUBCHEM_COORDINATE_TYPE>
2
5
10

$$$$
