12313579
  -OEChem-01082215363D

 40 43  0     1  0  0  0  0  0999 V2000
    0.5579    2.6074   -0.1243 O   0  0  0  0  0  0  0  0  0  0  0  0
    3.1837    2.0489   -0.1968 O   0  0  0  0  0  0  0  0  0  0  0  0
    0.0245   -3.5116   -0.2773 N   0  0  0  0  0  0  0  0  0  0  0  0
   -0.5169   -2.2311    0.2027 C   0  0  1  0  0  0  0  0  0  0  0  0
    0.4645   -1.0786    0.0639 C   0  0  0  0  0  0  0  0  0  0  0  0
   -1.8138   -1.9243   -0.5615 C   0  0  0  0  0  0  0  0  0  0  0  0
    1.8467   -1.3441   -0.0060 C   0  0  0  0  0  0  0  0  0  0  0  0
   -0.0255    0.2503    0.0728 C   0  0  0  0  0  0  0  0  0  0  0  0
    2.3529   -2.7628   -0.0659 C   0  0  0  0  0  0  0  0  0  0  0  0
    1.3072   -3.7903    0.3668 C   0  0  0  0  0  0  0  0  0  0  0  0
   -2.3733   -0.5790   -0.1557 C   0  0  0  0  0  0  0  0  0  0  0  0
   -1.4886    0.4837    0.1457 C   0  0  0  0  0  0  0  0  0  0  0  0
    0.9131    1.2924   -0.0154 C   0  0  0  0  0  0  0  0  0  0  0  0
    2.7485   -0.2811   -0.0934 C   0  0  0  0  0  0  0  0  0  0  0  0
    2.2830    1.0297   -0.0948 C   0  0  0  0  0  0  0  0  0  0  0  0
   -3.7625   -0.3852   -0.1292 C   0  0  0  0  0  0  0  0  0  0  0  0
   -2.0532    1.7187    0.5108 C   0  0  0  0  0  0  0  0  0  0  0  0
   -4.2921    0.8509    0.2266 C   0  0  0  0  0  0  0  0  0  0  0  0
   -3.4389    1.8997    0.5511 C   0  0  0  0  0  0  0  0  0  0  0  0
    0.3885    3.1217   -1.4417 C   0  0  0  0  0  0  0  0  0  0  0  0
    3.6941    2.5849    1.0214 C   0  0  0  0  0  0  0  0  0  0  0  0
   -0.7550   -2.3315    1.2715 H   0  0  0  0  0  0  0  0  0  0  0  0
   -2.5493   -2.7137   -0.3602 H   0  0  0  0  0  0  0  0  0  0  0  0
   -1.6403   -1.9026   -1.6460 H   0  0  0  0  0  0  0  0  0  0  0  0
    2.6603   -2.9690   -1.0993 H   0  0  0  0  0  0  0  0  0  0  0  0
    3.2379   -2.8687    0.5727 H   0  0  0  0  0  0  0  0  0  0  0  0
    0.1502   -3.4761   -1.2890 H   0  0  0  0  0  0  0  0  0  0  0  0
    1.6441   -4.7953    0.0902 H   0  0  0  0  0  0  0  0  0  0  0  0
    1.1892   -3.7888    1.4578 H   0  0  0  0  0  0  0  0  0  0  0  0
    3.8154   -0.4772   -0.1702 H   0  0  0  0  0  0  0  0  0  0  0  0
   -4.4367   -1.1996   -0.3815 H   0  0  0  0  0  0  0  0  0  0  0  0
   -1.4586    2.5647    0.8350 H   0  0  0  0  0  0  0  0  0  0  0  0
   -5.3680    0.9948    0.2555 H   0  0  0  0  0  0  0  0  0  0  0  0
   -3.8502    2.8608    0.8468 H   0  0  0  0  0  0  0  0  0  0  0  0
   -0.2980    2.4990   -2.0243 H   0  0  0  0  0  0  0  0  0  0  0  0
    1.3529    3.1909   -1.9542 H   0  0  0  0  0  0  0  0  0  0  0  0
   -0.0352    4.1268   -1.3641 H   0  0  0  0  0  0  0  0  0  0  0  0
    4.3891    3.3926    0.7760 H   0  0  0  0  0  0  0  0  0  0  0  0
    4.2352    1.8158    1.5817 H   0  0  0  0  0  0  0  0  0  0  0  0
    2.8837    2.9945    1.6327 H   0  0  0  0  0  0  0  0  0  0  0  0
  1 13  1  0  0  0  0
  1 20  1  0  0  0  0
  2 15  1  0  0  0  0
  2 21  1  0  0  0  0
  3  4  1  0  0  0  0
  3 10  1  0  0  0  0
  3 27  1  0  0  0  0
  4  5  1  0  0  0  0
  4  6  1  0  0  0  0
  4 22  1  0  0  0  0
  5  7  1  0  0  0  0
  5  8  2  0  0  0  0
  6 11  1  0  0  0  0
  6 23  1  0  0  0  0
  6 24  1  0  0  0  0
  7  9  1  0  0  0  0
  7 14  2  0  0  0  0
  8 12  1  0  0  0  0
  8 13  1  0  0  0  0
  9 10  1  0  0  0  0
  9 25  1  0  0  0  0
  9 26  1  0  0  0  0
 10 28  1  0  0  0  0
 10 29  1  0  0  0  0
 11 12  1  0  0  0  0
 11 16  2  0  0  0  0
 12 17  2  0  0  0  0
 13 15  2  0  0  0  0
 14 15  1  0  0  0  0
 14 30  1  0  0  0  0
 16 18  1  0  0  0  0
 16 31  1  0  0  0  0
 17 19  1  0  0  0  0
 17 32  1  0  0  0  0
 18 19  2  0  0  0  0
 18 33  1  0  0  0  0
 19 34  1  0  0  0  0
 20 35  1  0  0  0  0
 20 36  1  0  0  0  0
 20 37  1  0  0  0  0
 21 38  1  0  0  0  0
 21 39  1  0  0  0  0
 21 40  1  0  0  0  0
M  END
> <PUBCHEM_COMPOUND_CID>
12313579

> <PUBCHEM_CONFORMER_RMSD>
0.6

> <PUBCHEM_CONFORMER_DIVERSEORDER>
1
2

> <PUBCHEM_MMFF94_PARTIAL_CHARGES>
25
1 -0.36
10 0.27
11 -0.14
13 0.08
14 -0.15
15 0.08
16 -0.15
17 -0.15
18 -0.15
19 -0.15
2 -0.36
20 0.28
21 0.28
27 0.36
3 -0.9
30 0.15
31 0.15
32 0.15
33 0.15
34 0.15
4 0.41
5 -0.14
6 0.14
7 -0.14
9 0.14

> <PUBCHEM_EFFECTIVE_ROTOR_COUNT>
2.8

> <PUBCHEM_PHARMACOPHORE_FEATURES>
8
1 1 acceptor
1 2 acceptor
1 3 cation
1 3 donor
6 11 12 16 17 18 19 rings
6 3 4 5 7 9 10 rings
6 4 5 6 8 11 12 rings
6 5 7 8 13 14 15 rings

> <PUBCHEM_HEAVY_ATOM_COUNT>
21

> <PUBCHEM_ATOM_DEF_STEREO_COUNT>
1

> <PUBCHEM_ATOM_UDEF_STEREO_COUNT>
0

> <PUBCHEM_BOND_DEF_STEREO_COUNT>
0

> <PUBCHEM_BOND_UDEF_STEREO_COUNT>
0

> <PUBCHEM_ISOTOPIC_ATOM_COUNT>
0

> <PUBCHEM_COMPONENT_COUNT>
1

> <PUBCHEM_CACTVS_TAUTO_COUNT>
1

> <PUBCHEM_CONFORMER_ID>
00BBE3EB00000001

> <PUBCHEM_MMFF94_ENERGY>
82.4677

> <PUBCHEM_FEATURE_SELFOVERLAP>
40.692

> <PUBCHEM_SHAPE_FINGERPRINT>
10319926 262 17695890513414756816
10411042 1 17618505381127401483
10493431 412 18339926046704228393
10967382 1 18410576149962843279
1100329 8 18411980235218355402
11370993 70 18341324612567750576
11578080 2 14299846728964777645
11680986 33 18336837454233275811
12173636 292 18340203119471147701
12403259 226 17903075530134694759
12553582 1 17906172845621350703
12788726 201 17181371929339314592
13140716 1 18409726257708252858
138480 1 18122907525495135530
14178342 30 18339071721916495344
14787075 74 17701249476409429353
14790565 3 18337403681727220628
14955137 171 17551266997903219451
15042514 8 17688590880717075866
15442244 35 18052259492642443593
15536298 74 18343866601883433728
16945 1 18049730912087765270
19591789 44 18410298008128693742
20510252 161 18055358195408330523
20739085 24 18190765066819915505
20905425 154 17834682595187947095
21267235 1 18052548677333922427
2255824 54 18339366253673023782
2334 1 18410294726409559230
23419403 2 17389355170544446462
23463225 33 18122909720413405747
23558518 356 18191306189538593795
23559900 14 18197489632452804867
238 59 17685454738647053925
2748010 2 18408609145014113382
3071541 12 18340208479390002682
3091708 16 9260244704953830194
335352 9 17690282603994460677
350125 39 18411421695747408416
352729 6 17832990820486563807
43471831 8 18410291449555403235
474 4 18408605876776207153
484989 97 17399221445164063599
5104073 3 18410580548631756649
58807428 26 18339076102719665160
5939293 188 18053101718275318591
7364860 26 18340769221756497234
84936 182 18201998819891059344
90316 7 17255956776064755595
9981440 41 18266731562027721410

> <PUBCHEM_SHAPE_MULTIPOLES>
415.45
5.85
4.47
0.82
3.62
1.36
-0.09
-2.28
0.98
-3.4
-0.24
-0.07
-0.45
-0.06

> <PUBCHEM_SHAPE_SELFOVERLAP>
920.344

> <PUBCHEM_SHAPE_VOLUME>
221.5

> <PUBCHEM_COORDINATE_TYPE>
2
5
10

$$$$
