42607692
  -OEChem-01212206193D

 76 79  0     1  0  0  0  0  0999 V2000
    2.6985    2.4939   -0.5696 O   0  0  0  0  0  0  0  0  0  0  0  0
    2.0872   -2.4875    1.1667 O   0  0  0  0  0  0  0  0  0  0  0  0
   -0.4133    3.2018    1.2432 O   0  0  0  0  0  0  0  0  0  0  0  0
    2.8596   -2.6159   -2.4189 O   0  0  0  0  0  0  0  0  0  0  0  0
    1.6413    4.6200    2.7929 O   0  0  0  0  0  0  0  0  0  0  0  0
    5.3690   -3.4373   -1.1294 O   0  0  0  0  0  0  0  0  0  0  0  0
    3.7333    5.6006    1.0699 O   0  0  0  0  0  0  0  0  0  0  0  0
    4.8458   -4.8922    1.3030 O   0  0  0  0  0  0  0  0  0  0  0  0
    2.7651    0.1746    0.1985 O   0  0  0  0  0  0  0  0  0  0  0  0
   -0.7890   -2.6468   -1.2957 O   0  0  0  0  0  0  0  0  0  0  0  0
   -1.3102    2.1071   -1.3760 O   0  0  0  0  0  0  0  0  0  0  0  0
    4.8476    3.1132   -2.1633 O   0  0  0  0  0  0  0  0  0  0  0  0
    1.5882   -3.5578    3.6462 O   0  0  0  0  0  0  0  0  0  0  0  0
   -2.6008   -0.4689   -3.1132 O   0  0  0  0  0  0  0  0  0  0  0  0
   -9.2199   -0.4219    2.1243 O   0  0  0  0  0  0  0  0  0  0  0  0
    1.2886    2.5399   -0.3276 C   0  0  2  0  0  0  0  0  0  0  0  0
    1.8379   -2.4710   -0.2425 C   0  0  2  0  0  0  0  0  0  0  0  0
    0.9953    3.0183    1.1026 C   0  0  1  0  0  0  0  0  0  0  0  0
    3.1568   -2.4697   -1.0304 C   0  0  1  0  0  0  0  0  0  0  0  0
    1.7017    4.3457    1.3919 C   0  0  2  0  0  0  0  0  0  0  0  0
    4.0593   -3.6255   -0.5900 C   0  0  2  0  0  0  0  0  0  0  0  0
    3.1740    4.2925    0.9847 C   0  0  1  0  0  0  0  0  0  0  0  0
    4.1807   -3.6873    0.9325 C   0  0  1  0  0  0  0  0  0  0  0  0
    3.3232    3.7723   -0.4462 C   0  0  1  0  0  0  0  0  0  0  0  0
    2.7996   -3.6511    1.5893 C   0  0  1  0  0  0  0  0  0  0  0  0
    0.7320    1.1535   -0.5867 C   0  0  0  0  0  0  0  0  0  0  0  0
    0.9952   -1.2478   -0.5461 C   0  0  0  0  0  0  0  0  0  0  0  0
    1.5070    0.0278   -0.3079 C   0  0  0  0  0  0  0  0  0  0  0  0
   -0.2917   -1.3975   -1.0633 C   0  0  0  0  0  0  0  0  0  0  0  0
   -0.5548    1.0037   -1.1038 C   0  0  0  0  0  0  0  0  0  0  0  0
    4.7881    3.6057   -0.8371 C   0  0  0  0  0  0  0  0  0  0  0  0
    2.8982   -3.6002    3.1106 C   0  0  0  0  0  0  0  0  0  0  0  0
   -1.0666   -0.2717   -1.3422 C   0  0  0  0  0  0  0  0  0  0  0  0
   -2.4130   -0.4279   -1.8826 C   0  0  0  0  0  0  0  0  0  0  0  0
   -3.6116   -0.5433   -0.9264 C   0  0  0  0  0  0  0  0  0  0  0  0
   -4.9037    0.0386   -1.5045 C   0  0  0  0  0  0  0  0  0  0  0  0
   -6.0520   -0.0847   -0.5364 C   0  0  0  0  0  0  0  0  0  0  0  0
   -6.8621   -1.2200   -0.5567 C   0  0  0  0  0  0  0  0  0  0  0  0
   -6.3065    0.9374    0.3781 C   0  0  0  0  0  0  0  0  0  0  0  0
   -7.9264   -1.3334    0.3377 C   0  0  0  0  0  0  0  0  0  0  0  0
   -7.3708    0.8241    1.2723 C   0  0  0  0  0  0  0  0  0  0  0  0
   -8.1809   -0.3113    1.2522 C   0  0  0  0  0  0  0  0  0  0  0  0
    0.8561    3.2327   -1.0616 H   0  0  0  0  0  0  0  0  0  0  0  0
    1.2781   -3.3808   -0.4916 H   0  0  0  0  0  0  0  0  0  0  0  0
    1.2994    2.2679    1.8422 H   0  0  0  0  0  0  0  0  0  0  0  0
    3.7272   -1.5440   -0.9348 H   0  0  0  0  0  0  0  0  0  0  0  0
    1.1889    5.1781    0.8960 H   0  0  0  0  0  0  0  0  0  0  0  0
    3.6985   -4.5793   -0.9926 H   0  0  0  0  0  0  0  0  0  0  0  0
    3.7271    3.6535    1.6839 H   0  0  0  0  0  0  0  0  0  0  0  0
    4.7955   -2.8512    1.2877 H   0  0  0  0  0  0  0  0  0  0  0  0
    2.8568    4.4589   -1.1658 H   0  0  0  0  0  0  0  0  0  0  0  0
    2.2106   -4.5378    1.3180 H   0  0  0  0  0  0  0  0  0  0  0  0
    5.2837    2.8757   -0.1883 H   0  0  0  0  0  0  0  0  0  0  0  0
    5.3275    4.5564   -0.7907 H   0  0  0  0  0  0  0  0  0  0  0  0
    3.4212   -2.6951    3.4372 H   0  0  0  0  0  0  0  0  0  0  0  0
    3.4127   -4.4795    3.5097 H   0  0  0  0  0  0  0  0  0  0  0  0
   -0.6979    3.8621    0.5885 H   0  0  0  0  0  0  0  0  0  0  0  0
    2.3786   -3.4526   -2.5379 H   0  0  0  0  0  0  0  0  0  0  0  0
    2.0771    3.8890    3.2633 H   0  0  0  0  0  0  0  0  0  0  0  0
    5.7189   -2.5958   -0.7904 H   0  0  0  0  0  0  0  0  0  0  0  0
    3.2569    6.1724    0.4440 H   0  0  0  0  0  0  0  0  0  0  0  0
    4.3018   -5.6402    1.0029 H   0  0  0  0  0  0  0  0  0  0  0  0
    2.8907    1.0647    0.5615 H   0  0  0  0  0  0  0  0  0  0  0  0
   -1.6705   -2.5998   -1.6985 H   0  0  0  0  0  0  0  0  0  0  0  0
   -2.1700    1.8559   -1.7488 H   0  0  0  0  0  0  0  0  0  0  0  0
   -3.7407   -1.6070   -0.6929 H   0  0  0  0  0  0  0  0  0  0  0  0
   -3.3586   -0.0292    0.0089 H   0  0  0  0  0  0  0  0  0  0  0  0
    5.7876    3.0096   -2.3891 H   0  0  0  0  0  0  0  0  0  0  0  0
    1.6747   -3.5214    4.6140 H   0  0  0  0  0  0  0  0  0  0  0  0
   -4.7532    1.0924   -1.7723 H   0  0  0  0  0  0  0  0  0  0  0  0
   -5.1615   -0.4664   -2.4444 H   0  0  0  0  0  0  0  0  0  0  0  0
   -6.6730   -2.0235   -1.2636 H   0  0  0  0  0  0  0  0  0  0  0  0
   -5.6812    1.8260    0.4041 H   0  0  0  0  0  0  0  0  0  0  0  0
   -8.5537   -2.2204    0.3173 H   0  0  0  0  0  0  0  0  0  0  0  0
   -7.5583    1.6271    1.9800 H   0  0  0  0  0  0  0  0  0  0  0  0
   -9.2489    0.3743    2.6824 H   0  0  0  0  0  0  0  0  0  0  0  0
  1 16  1  0  0  0  0
  1 24  1  0  0  0  0
  2 17  1  0  0  0  0
  2 25  1  0  0  0  0
  3 18  1  0  0  0  0
  3 57  1  0  0  0  0
  4 19  1  0  0  0  0
  4 58  1  0  0  0  0
  5 20  1  0  0  0  0
  5 59  1  0  0  0  0
  6 21  1  0  0  0  0
  6 60  1  0  0  0  0
  7 22  1  0  0  0  0
  7 61  1  0  0  0  0
  8 23  1  0  0  0  0
  8 62  1  0  0  0  0
  9 28  1  0  0  0  0
  9 63  1  0  0  0  0
 10 29  1  0  0  0  0
 10 64  1  0  0  0  0
 11 30  1  0  0  0  0
 11 65  1  0  0  0  0
 12 31  1  0  0  0  0
 12 68  1  0  0  0  0
 13 32  1  0  0  0  0
 13 69  1  0  0  0  0
 14 34  2  0  0  0  0
 15 42  1  0  0  0  0
 15 76  1  0  0  0  0
 16 18  1  0  0  0  0
 16 26  1  0  0  0  0
 16 43  1  0  0  0  0
 17 19  1  0  0  0  0
 17 27  1  0  0  0  0
 17 44  1  0  0  0  0
 18 20  1  0  0  0  0
 18 45  1  0  0  0  0
 19 21  1  0  0  0  0
 19 46  1  0  0  0  0
 20 22  1  0  0  0  0
 20 47  1  0  0  0  0
 21 23  1  0  0  0  0
 21 48  1  0  0  0  0
 22 24  1  0  0  0  0
 22 49  1  0  0  0  0
 23 25  1  0  0  0  0
 23 50  1  0  0  0  0
 24 31  1  0  0  0  0
 24 51  1  0  0  0  0
 25 32  1  0  0  0  0
 25 52  1  0  0  0  0
 26 28  2  0  0  0  0
 26 30  1  0  0  0  0
 27 28  1  0  0  0  0
 27 29  2  0  0  0  0
 29 33  1  0  0  0  0
 30 33  2  0  0  0  0
 31 53  1  0  0  0  0
 31 54  1  0  0  0  0
 32 55  1  0  0  0  0
 32 56  1  0  0  0  0
 33 34  1  0  0  0  0
 34 35  1  0  0  0  0
 35 36  1  0  0  0  0
 35 66  1  0  0  0  0
 35 67  1  0  0  0  0
 36 37  1  0  0  0  0
 36 70  1  0  0  0  0
 36 71  1  0  0  0  0
 37 38  2  0  0  0  0
 37 39  1  0  0  0  0
 38 40  1  0  0  0  0
 38 72  1  0  0  0  0
 39 41  2  0  0  0  0
 39 73  1  0  0  0  0
 40 42  2  0  0  0  0
 40 74  1  0  0  0  0
 41 42  1  0  0  0  0
 41 75  1  0  0  0  0
M  END
> <PUBCHEM_COMPOUND_CID>
42607692

> <PUBCHEM_CONFORMER_RMSD>
1.2

> <PUBCHEM_CONFORMER_DIVERSEORDER>
1
54
31
27
73
29
7
77
60
65
74
52
51
61
10
40
20
62
15
50
24
49
78
47
16
11
56
64
17
79
34
21
41
46
39
23
59
72
71
33
25
45
44
57
53
8
2
75
68
35
70
43
55
18
26
13
37
76
3
5
28
67
42
58
36
30
14
6
9
66
48
63
22
19
69
12
38
32
4

> <PUBCHEM_MMFF94_PARTIAL_CHARGES>
58
1 -0.56
10 -0.53
11 -0.53
12 -0.68
13 -0.68
14 -0.57
15 -0.53
16 0.42
17 0.42
18 0.28
19 0.28
2 -0.56
20 0.28
21 0.28
22 0.28
23 0.28
24 0.28
25 0.28
26 -0.14
27 -0.14
28 0.08
29 0.08
3 -0.68
30 0.08
31 0.28
32 0.28
33 0.09
34 0.42
35 0.06
36 0.14
37 -0.14
38 -0.15
39 -0.15
4 -0.68
40 -0.15
41 -0.15
42 0.08
5 -0.68
57 0.4
58 0.4
59 0.4
6 -0.68
60 0.4
61 0.4
62 0.4
63 0.45
64 0.45
65 0.45
68 0.4
69 0.4
7 -0.68
72 0.15
73 0.15
74 0.15
75 0.15
76 0.45
8 -0.68
9 -0.53

> <PUBCHEM_EFFECTIVE_ROTOR_COUNT>
10.4

> <PUBCHEM_PHARMACOPHORE_FEATURES>
27
1 1 acceptor
1 10 donor
1 11 donor
1 12 acceptor
1 12 donor
1 13 acceptor
1 13 donor
1 14 acceptor
1 15 donor
1 2 acceptor
1 3 acceptor
1 3 donor
1 4 acceptor
1 4 donor
1 5 acceptor
1 5 donor
1 6 acceptor
1 6 donor
1 7 acceptor
1 7 donor
1 8 acceptor
1 8 donor
1 9 donor
6 1 16 18 20 22 24 rings
6 2 17 19 21 23 25 rings
6 26 27 28 29 30 33 rings
6 37 38 39 40 41 42 rings

> <PUBCHEM_HEAVY_ATOM_COUNT>
42

> <PUBCHEM_ATOM_DEF_STEREO_COUNT>
6

> <PUBCHEM_ATOM_UDEF_STEREO_COUNT>
4

> <PUBCHEM_BOND_DEF_STEREO_COUNT>
0

> <PUBCHEM_BOND_UDEF_STEREO_COUNT>
0

> <PUBCHEM_ISOTOPIC_ATOM_COUNT>
0

> <PUBCHEM_COMPONENT_COUNT>
1

> <PUBCHEM_CACTVS_TAUTO_COUNT>
50

> <PUBCHEM_CONFORMER_ID>
028A244C00000001

> <PUBCHEM_MMFF94_ENERGY>
133.2074

> <PUBCHEM_FEATURE_SELFOVERLAP>
137.088

> <PUBCHEM_SHAPE_FINGERPRINT>
10190108 129 18337962289310768525
10675989 125 18199470038143447892
10985338 8 16630252531949511469
12160290 23 16973891366342235972
13140716 1 18049982678997242324
13540713 4 17969201401255409453
13540713 5 17987782147011083055
13782708 43 17822570513437731359
14114211 68 18190196739820693380
14849402 71 18343025514628239677
15347590 135 18189603970189008290
15392192 104 17606129613774083429
15444296 121 17909546160776569677
15475509 35 17821730494969900339
15927050 60 18125158483479874935
19315092 285 16736057213267056362
21796203 349 18339351968585813447
21927370 108 18196087734122636726
249999 5 18338229466044977173
3178227 256 18336259132971801136
3411729 13 18340772640850963799
3418910 222 18120365464394369874
3552219 110 18191597350257043982
376196 1 17270033175043075748
4516262 110 18198330961556263245
469060 322 17981049604705370570
5385378 56 18339923830696354045
563151 40 18045788050363435742
563151 74 18337676442372802729
6058803 2 17701516619507470567
6086070 43 18121192326790979855
6697151 62 18049973676972728085
6703917 75 17758966213026523077
9896288 288 17620466248134790262
9962374 69 18342444942799037039

> <PUBCHEM_SHAPE_MULTIPOLES>
776.3
17.1
7.62
2.59
52
3.81
-1.19
-4.74
-5.47
-19.71
-4.67
-0.63
-1.26
-1.37

> <PUBCHEM_SHAPE_SELFOVERLAP>
1666.895

> <PUBCHEM_SHAPE_VOLUME>
422.9

> <PUBCHEM_COORDINATE_TYPE>
2
5
10

$$$$
