145959837
  -OEChem-02172201123D

 79 82  0     1  0  0  0  0  0999 V2000
    3.9859   -1.8973   -2.8236 S   0  0  0  0  0  0  0  0  0  0  0  0
   -5.3534    1.5079   -2.0666 O   0  0  0  0  0  0  0  0  0  0  0  0
   -4.0346   -0.4707    1.2140 O   0  0  0  0  0  0  0  0  0  0  0  0
   -3.5779   -0.4851   -1.0467 O   0  0  0  0  0  0  0  0  0  0  0  0
   -2.1749   -2.2923    2.6342 N   0  0  0  0  0  0  0  0  0  0  0  0
   -1.0074   -3.6336    1.4237 N   0  0  0  0  0  0  0  0  0  0  0  0
   -1.0396   -2.9812    2.5971 N   0  0  0  0  0  0  0  0  0  0  0  0
    1.5303    3.0038   -0.2406 C   0  0  1  0  0  0  0  0  0  0  0  0
    1.5022    2.0590    1.0212 C   0  0  2  0  0  0  0  0  0  0  0  0
    2.6184    2.3075    2.1018 C   0  0  0  0  0  0  0  0  0  0  0  0
    0.2141    2.7863   -1.0915 C   0  0  1  0  0  0  0  0  0  0  0  0
    1.6443    4.4753    0.2315 C   0  0  0  0  0  0  0  0  0  0  0  0
    1.3340    0.5776    0.6082 C   0  0  0  0  0  0  0  0  0  0  0  0
    2.7115    3.8222    2.4184 C   0  0  0  0  0  0  0  0  0  0  0  0
    2.8099    4.7170    1.1884 C   0  0  0  0  0  0  0  0  0  0  0  0
    2.7180    2.7166   -1.2042 C   0  0  0  0  0  0  0  0  0  0  0  0
    0.0920    0.3591   -0.2612 C   0  0  0  0  0  0  0  0  0  0  0  0
    0.0438    1.3117   -1.4257 C   0  0  0  0  0  0  0  0  0  0  0  0
    4.0082    1.7603    1.7247 C   0  0  0  0  0  0  0  0  0  0  0  0
    2.2239    1.6003    3.4266 C   0  0  0  0  0  0  0  0  0  0  0  0
   -1.0847    3.3163   -0.4635 C   0  0  0  0  0  0  0  0  0  0  0  0
   -0.1112    0.8799   -2.6870 C   0  0  0  0  0  0  0  0  0  0  0  0
   -2.2516    3.0638   -1.3659 C   0  0  0  0  0  0  0  0  0  0  0  0
   -3.3222    2.3002   -1.0852 C   0  0  0  0  0  0  0  0  0  0  0  0
   -3.6055    1.6037    0.2141 C   0  0  0  0  0  0  0  0  0  0  0  0
   -4.3303    2.1737   -2.1747 C   0  0  0  0  0  0  0  0  0  0  0  0
   -3.7305    0.1073    0.0129 C   0  0  0  0  0  0  0  0  0  0  0  0
   -4.1800   -1.8944    1.1933 C   0  0  0  0  0  0  0  0  0  0  0  0
   -2.8469   -2.5266    1.4666 C   0  0  0  0  0  0  0  0  0  0  0  0
   -2.1178   -3.3813    0.6786 C   0  0  0  0  0  0  0  0  0  0  0  0
    0.1078   -4.4799    1.0831 C   0  0  0  0  0  0  0  0  0  0  0  0
    1.0701   -3.8393    0.1138 C   0  0  0  0  0  0  0  0  0  0  0  0
    0.7568   -3.7810   -1.2441 C   0  0  0  0  0  0  0  0  0  0  0  0
    2.2731   -3.3052    0.5756 C   0  0  0  0  0  0  0  0  0  0  0  0
    1.6464   -3.1885   -2.1403 C   0  0  0  0  0  0  0  0  0  0  0  0
    3.1627   -2.7127   -0.3206 C   0  0  0  0  0  0  0  0  0  0  0  0
    2.8494   -2.6543   -1.6786 C   0  0  0  0  0  0  0  0  0  0  0  0
    5.4657   -2.9261   -2.6079 C   0  0  0  0  0  0  0  0  0  0  0  0
    0.5715    2.3136    1.5501 H   0  0  0  0  0  0  0  0  0  0  0  0
    0.3474    3.3463   -2.0304 H   0  0  0  0  0  0  0  0  0  0  0  0
    0.7356    4.7767    0.7641 H   0  0  0  0  0  0  0  0  0  0  0  0
    1.7363    5.1453   -0.6322 H   0  0  0  0  0  0  0  0  0  0  0  0
    1.2343   -0.0614    1.4915 H   0  0  0  0  0  0  0  0  0  0  0  0
    2.2198    0.2247    0.0708 H   0  0  0  0  0  0  0  0  0  0  0  0
    1.8210    4.1277    2.9854 H   0  0  0  0  0  0  0  0  0  0  0  0
    3.5688    4.0209    3.0743 H   0  0  0  0  0  0  0  0  0  0  0  0
    3.7712    4.5744    0.6861 H   0  0  0  0  0  0  0  0  0  0  0  0
    2.7918    5.7654    1.5105 H   0  0  0  0  0  0  0  0  0  0  0  0
    2.7876    1.6643   -1.4924 H   0  0  0  0  0  0  0  0  0  0  0  0
    3.6856    3.0065   -0.7990 H   0  0  0  0  0  0  0  0  0  0  0  0
    2.6070    3.2936   -2.1310 H   0  0  0  0  0  0  0  0  0  0  0  0
    0.0730   -0.6830   -0.5996 H   0  0  0  0  0  0  0  0  0  0  0  0
   -0.8020    0.4951    0.3561 H   0  0  0  0  0  0  0  0  0  0  0  0
    4.4744    2.2968    0.9003 H   0  0  0  0  0  0  0  0  0  0  0  0
    4.7003    1.8513    2.5714 H   0  0  0  0  0  0  0  0  0  0  0  0
    3.9702    0.6985    1.4620 H   0  0  0  0  0  0  0  0  0  0  0  0
    1.2115    1.8771    3.7415 H   0  0  0  0  0  0  0  0  0  0  0  0
    2.9062    1.8783    4.2390 H   0  0  0  0  0  0  0  0  0  0  0  0
    2.2625    0.5101    3.3361 H   0  0  0  0  0  0  0  0  0  0  0  0
   -1.0236    4.4047   -0.3494 H   0  0  0  0  0  0  0  0  0  0  0  0
   -1.2324    2.9211    0.5418 H   0  0  0  0  0  0  0  0  0  0  0  0
   -0.1325    1.5714   -3.5225 H   0  0  0  0  0  0  0  0  0  0  0  0
   -0.2209   -0.1758   -2.9117 H   0  0  0  0  0  0  0  0  0  0  0  0
   -2.1810    3.5433   -2.3417 H   0  0  0  0  0  0  0  0  0  0  0  0
   -4.5572    1.9754    0.6124 H   0  0  0  0  0  0  0  0  0  0  0  0
   -2.8390    1.7743    0.9717 H   0  0  0  0  0  0  0  0  0  0  0  0
   -4.1050    2.7163   -3.1084 H   0  0  0  0  0  0  0  0  0  0  0  0
   -4.6171   -2.2486    0.2526 H   0  0  0  0  0  0  0  0  0  0  0  0
   -4.8761   -2.1639    1.9947 H   0  0  0  0  0  0  0  0  0  0  0  0
   -2.2921   -3.8132   -0.2965 H   0  0  0  0  0  0  0  0  0  0  0  0
   -0.2963   -5.4055    0.6546 H   0  0  0  0  0  0  0  0  0  0  0  0
    0.6173   -4.7669    2.0112 H   0  0  0  0  0  0  0  0  0  0  0  0
   -0.1726   -4.1992   -1.6204 H   0  0  0  0  0  0  0  0  0  0  0  0
    2.5268   -3.3394    1.6317 H   0  0  0  0  0  0  0  0  0  0  0  0
    1.3853   -3.1528   -3.1951 H   0  0  0  0  0  0  0  0  0  0  0  0
    4.0896   -2.2942    0.0635 H   0  0  0  0  0  0  0  0  0  0  0  0
    6.2233   -2.6194   -3.3339 H   0  0  0  0  0  0  0  0  0  0  0  0
    5.8793   -2.8043   -1.6036 H   0  0  0  0  0  0  0  0  0  0  0  0
    5.2250   -3.9790   -2.7775 H   0  0  0  0  0  0  0  0  0  0  0  0
  1 37  1  0  0  0  0
  1 38  1  0  0  0  0
  2 26  2  0  0  0  0
  3 27  1  0  0  0  0
  3 28  1  0  0  0  0
  4 27  2  0  0  0  0
  5  7  2  0  0  0  0
  5 29  1  0  0  0  0
  6  7  1  0  0  0  0
  6 30  1  0  0  0  0
  6 31  1  0  0  0  0
  8  9  1  0  0  0  0
  8 11  1  0  0  0  0
  8 12  1  0  0  0  0
  8 16  1  0  0  0  0
  9 10  1  0  0  0  0
  9 13  1  0  0  0  0
  9 39  1  0  0  0  0
 10 14  1  0  0  0  0
 10 19  1  0  0  0  0
 10 20  1  0  0  0  0
 11 18  1  0  0  0  0
 11 21  1  0  0  0  0
 11 40  1  0  0  0  0
 12 15  1  0  0  0  0
 12 41  1  0  0  0  0
 12 42  1  0  0  0  0
 13 17  1  0  0  0  0
 13 43  1  0  0  0  0
 13 44  1  0  0  0  0
 14 15  1  0  0  0  0
 14 45  1  0  0  0  0
 14 46  1  0  0  0  0
 15 47  1  0  0  0  0
 15 48  1  0  0  0  0
 16 49  1  0  0  0  0
 16 50  1  0  0  0  0
 16 51  1  0  0  0  0
 17 18  1  0  0  0  0
 17 52  1  0  0  0  0
 17 53  1  0  0  0  0
 18 22  2  0  0  0  0
 19 54  1  0  0  0  0
 19 55  1  0  0  0  0
 19 56  1  0  0  0  0
 20 57  1  0  0  0  0
 20 58  1  0  0  0  0
 20 59  1  0  0  0  0
 21 23  1  0  0  0  0
 21 60  1  0  0  0  0
 21 61  1  0  0  0  0
 22 62  1  0  0  0  0
 22 63  1  0  0  0  0
 23 24  2  0  0  0  0
 23 64  1  0  0  0  0
 24 25  1  0  0  0  0
 24 26  1  0  0  0  0
 25 27  1  0  0  0  0
 25 65  1  0  0  0  0
 25 66  1  0  0  0  0
 26 67  1  0  0  0  0
 28 29  1  0  0  0  0
 28 68  1  0  0  0  0
 28 69  1  0  0  0  0
 29 30  2  0  0  0  0
 30 70  1  0  0  0  0
 31 32  1  0  0  0  0
 31 71  1  0  0  0  0
 31 72  1  0  0  0  0
 32 33  2  0  0  0  0
 32 34  1  0  0  0  0
 33 35  1  0  0  0  0
 33 73  1  0  0  0  0
 34 36  2  0  0  0  0
 34 74  1  0  0  0  0
 35 37  2  0  0  0  0
 35 75  1  0  0  0  0
 36 37  1  0  0  0  0
 36 76  1  0  0  0  0
 38 77  1  0  0  0  0
 38 78  1  0  0  0  0
 38 79  1  0  0  0  0
M  END
> <PUBCHEM_COMPOUND_CID>
145959837

> <PUBCHEM_CONFORMER_RMSD>
1.4

> <PUBCHEM_CONFORMER_DIVERSEORDER>
2
109
120
102
19
166
14
157
149
135
137
146
33
97
121
80
70
1
62
17
125
44
106
129
104
124
164
48
138
162
140
71
41
58
95
79
148
38
101
65
23
131
98
116
8
26
142
47
54
25
154
7
77
119
35
141
110
88
128
134
156
113
36
130
165
122
103
56
159
78
105
92
34
75
151
40
69
89
94
127
143
158
49
64
12
57
3
123
155
118
20
81
90
144
152
66
161
76
59
16
163
147
73
67
60
46
13
39
53
15
61
115
5
43
32
108
99
133
9
11
150
139
83
68
114
84
100
45
87
21
117
29
22
153
112
96
85
24
31
37
132
52
51
50
107
74
63
6
86
27
145
55
72
30
91
28
4
10
42
82
136
93
126
111
160
18

> <PUBCHEM_MMFF94_PARTIAL_CHARGES>
37
1 -0.33
11 0.14
17 0.14
18 -0.28
2 -0.57
21 0.14
22 -0.3
23 -0.29
24 -0.12
25 0.2
26 0.5
27 0.66
28 0.46
29 0.05
3 -0.43
30 -0.3
31 0.4
32 -0.14
33 -0.15
34 -0.15
35 -0.15
36 -0.15
37 0.1
38 0.23
4 -0.57
5 -0.23
6 0.31
62 0.15
63 0.15
64 0.15
67 0.06
7 -0.42
70 0.15
73 0.15
74 0.15
75 0.15
76 0.15

> <PUBCHEM_EFFECTIVE_ROTOR_COUNT>
12.4

> <PUBCHEM_PHARMACOPHORE_FEATURES>
8
1 2 acceptor
1 38 hydrophobe
1 4 acceptor
3 10 19 20 hydrophobe
5 5 6 7 29 30 rings
6 32 33 34 35 36 37 rings
6 8 9 10 12 14 15 rings
6 8 9 11 13 17 18 rings

> <PUBCHEM_HEAVY_ATOM_COUNT>
38

> <PUBCHEM_ATOM_DEF_STEREO_COUNT>
2

> <PUBCHEM_ATOM_UDEF_STEREO_COUNT>
1

> <PUBCHEM_BOND_DEF_STEREO_COUNT>
1

> <PUBCHEM_BOND_UDEF_STEREO_COUNT>
0

> <PUBCHEM_ISOTOPIC_ATOM_COUNT>
0

> <PUBCHEM_COMPONENT_COUNT>
1

> <PUBCHEM_CACTVS_TAUTO_COUNT>
-1

> <PUBCHEM_CONFORMER_ID>
08B32B9D00000002

> <PUBCHEM_MMFF94_ENERGY>
88.9551

> <PUBCHEM_FEATURE_SELFOVERLAP>
40.614

> <PUBCHEM_SHAPE_FINGERPRINT>
10010297 198 17394157064646998008
10032420 55 18046900490006218942
10815517 723 16826153845757298016
11513181 2 18266723856724483791
12156800 1 17967255299785894450
12355185 1 17045420069190689657
12422481 6 17906732863013676232
12522641 24 18269287777356887561
12717326 25 17701237352555426120
12788726 201 17045417874356796061
13383668 90 14281871247670936578
14040221 299 17909561892656173849
14114207 22 16232459064768754251
14117953 113 17400367144817133199
14400156 260 14672557303823137880
14725015 67 18259988193207299515
14856354 85 16817421503103138832
14932702 115 18117581547084060694
150020 26 17691159292777397026
15815584 197 17326842406851016864
15968369 26 18116412800435442205
161222 619 18271513244161357122
17974551 9 17697644023600895033
19311894 1 15818756419721905519
20764821 26 17972593290730133539
21033648 29 17266962256109014273
21792965 11 15527678309392620962
238918 7 18268137828930894634
35225 105 17409335792028018459
4394409 98 16757747733829774623
45266715 3 17973410305975736933
50150288 127 16976757784223229434
5171179 24 18341621450700735270
86090 222 18189049811837806209

> <PUBCHEM_SHAPE_MULTIPOLES>
753.32
8.19
8.01
3.21
4.12
3.57
0.42
-4.47
-7.93
-2.38
6.47
1.21
0.7
-1.29

> <PUBCHEM_SHAPE_SELFOVERLAP>
1564.187

> <PUBCHEM_SHAPE_VOLUME>
432.9

> <PUBCHEM_COORDINATE_TYPE>
2
5
10

$$$$
