145949928
  -OEChem-02142203553D

 75 78  0     1  0  0  0  0  0999 V2000
   -0.2803    4.0817   -3.1069 F   0  0  0  0  0  0  0  0  0  0  0  0
    1.6808   -5.3417   -1.5226 O   0  0  0  0  0  0  0  0  0  0  0  0
    2.5692   -2.7913    1.4977 O   0  0  0  0  0  0  0  0  0  0  0  0
    2.3597   -2.6631   -0.7955 O   0  0  0  0  0  0  0  0  0  0  0  0
    3.0536   -0.0907    2.6228 N   0  0  0  0  0  0  0  0  0  0  0  0
    3.5498    1.4724    1.2306 N   0  0  0  0  0  0  0  0  0  0  0  0
    3.0071    1.2234    2.4335 N   0  0  0  0  0  0  0  0  0  0  0  0
   -3.3697   -0.2384   -0.3371 C   0  0  1  0  0  0  0  0  0  0  0  0
   -2.5807    0.3988    0.8699 C   0  0  2  0  0  0  0  0  0  0  0  0
   -3.4146    1.3129    1.8417 C   0  0  0  0  0  0  0  0  0  0  0  0
   -2.4549   -1.3089   -1.0586 C   0  0  1  0  0  0  0  0  0  0  0  0
   -4.6685   -0.8936    0.1969 C   0  0  0  0  0  0  0  0  0  0  0  0
   -1.2447    1.0213    0.3997 C   0  0  0  0  0  0  0  0  0  0  0  0
   -4.7360    0.5988    2.2257 C   0  0  0  0  0  0  0  0  0  0  0  0
   -5.5222    0.0510    1.0404 C   0  0  0  0  0  0  0  0  0  0  0  0
   -3.7689    0.7938   -1.4312 C   0  0  0  0  0  0  0  0  0  0  0  0
   -0.3695    0.0107   -0.3478 C   0  0  0  0  0  0  0  0  0  0  0  0
   -1.1245   -0.6829   -1.4499 C   0  0  0  0  0  0  0  0  0  0  0  0
   -3.7148    2.7218    1.2961 C   0  0  0  0  0  0  0  0  0  0  0  0
   -2.6240    1.5234    3.1614 C   0  0  0  0  0  0  0  0  0  0  0  0
   -2.1935   -2.6043   -0.2738 C   0  0  0  0  0  0  0  0  0  0  0  0
   -0.6623   -0.7199   -2.7095 C   0  0  0  0  0  0  0  0  0  0  0  0
   -1.3307   -3.5379   -1.0637 C   0  0  0  0  0  0  0  0  0  0  0  0
   -0.1085   -3.9769   -0.7148 C   0  0  0  0  0  0  0  0  0  0  0  0
    0.6125   -3.6829    0.5686 C   0  0  0  0  0  0  0  0  0  0  0  0
    0.5642   -4.8688   -1.7002 C   0  0  0  0  0  0  0  0  0  0  0  0
    1.9346   -2.9921    0.3036 C   0  0  0  0  0  0  0  0  0  0  0  0
    3.8394   -2.1365    1.4180 C   0  0  0  0  0  0  0  0  0  0  0  0
    3.6330   -0.6538    1.5197 C   0  0  0  0  0  0  0  0  0  0  0  0
    3.9577    0.3280    0.6176 C   0  0  0  0  0  0  0  0  0  0  0  0
    3.6499    2.8211    0.7337 C   0  0  0  0  0  0  0  0  0  0  0  0
    2.5988    3.1588   -0.2945 C   0  0  0  0  0  0  0  0  0  0  0  0
    2.7385    2.7121   -1.6084 C   0  0  0  0  0  0  0  0  0  0  0  0
    1.4865    3.9175    0.0696 C   0  0  0  0  0  0  0  0  0  0  0  0
    1.7658    3.0240   -2.5583 C   0  0  0  0  0  0  0  0  0  0  0  0
    0.5138    4.2295   -0.8802 C   0  0  0  0  0  0  0  0  0  0  0  0
    0.6535    3.7828   -2.1941 C   0  0  0  0  0  0  0  0  0  0  0  0
   -2.2896   -0.4520    1.5041 H   0  0  0  0  0  0  0  0  0  0  0  0
   -2.9842   -1.6116   -1.9758 H   0  0  0  0  0  0  0  0  0  0  0  0
   -4.4287   -1.7513    0.8349 H   0  0  0  0  0  0  0  0  0  0  0  0
   -5.2680   -1.2821   -0.6356 H   0  0  0  0  0  0  0  0  0  0  0  0
   -0.6671    1.3886    1.2541 H   0  0  0  0  0  0  0  0  0  0  0  0
   -1.4288    1.8877   -0.2433 H   0  0  0  0  0  0  0  0  0  0  0  0
   -5.3809    1.2766    2.7996 H   0  0  0  0  0  0  0  0  0  0  0  0
   -4.5101   -0.2421    2.8962 H   0  0  0  0  0  0  0  0  0  0  0  0
   -5.9240    0.8691    0.4354 H   0  0  0  0  0  0  0  0  0  0  0  0
   -6.3929   -0.5000    1.4168 H   0  0  0  0  0  0  0  0  0  0  0  0
   -2.9238    1.3936   -1.7794 H   0  0  0  0  0  0  0  0  0  0  0  0
   -4.5475    1.4845   -1.1128 H   0  0  0  0  0  0  0  0  0  0  0  0
   -4.1785    0.2804   -2.3103 H   0  0  0  0  0  0  0  0  0  0  0  0
   -0.0008   -0.7349    0.3643 H   0  0  0  0  0  0  0  0  0  0  0  0
    0.5165    0.5253   -0.7362 H   0  0  0  0  0  0  0  0  0  0  0  0
   -2.8030    3.2404    0.9841 H   0  0  0  0  0  0  0  0  0  0  0  0
   -4.4084    2.7212    0.4571 H   0  0  0  0  0  0  0  0  0  0  0  0
   -4.1818    3.3430    2.0708 H   0  0  0  0  0  0  0  0  0  0  0  0
   -3.2411    2.0305    3.9129 H   0  0  0  0  0  0  0  0  0  0  0  0
   -2.3040    0.5681    3.5925 H   0  0  0  0  0  0  0  0  0  0  0  0
   -1.7326    2.1406    3.0107 H   0  0  0  0  0  0  0  0  0  0  0  0
   -3.1384   -3.1352   -0.1101 H   0  0  0  0  0  0  0  0  0  0  0  0
   -1.7949   -2.3960    0.7193 H   0  0  0  0  0  0  0  0  0  0  0  0
   -1.2180   -1.2110   -3.5012 H   0  0  0  0  0  0  0  0  0  0  0  0
    0.2834   -0.2602   -2.9765 H   0  0  0  0  0  0  0  0  0  0  0  0
   -1.7577   -3.8528   -2.0153 H   0  0  0  0  0  0  0  0  0  0  0  0
    0.0396   -3.0534    1.2515 H   0  0  0  0  0  0  0  0  0  0  0  0
    0.8188   -4.6301    1.0813 H   0  0  0  0  0  0  0  0  0  0  0  0
   -0.0010   -5.0852   -2.6226 H   0  0  0  0  0  0  0  0  0  0  0  0
    4.3874   -2.4133    0.5099 H   0  0  0  0  0  0  0  0  0  0  0  0
    4.4364   -2.4753    2.2714 H   0  0  0  0  0  0  0  0  0  0  0  0
    4.4268    0.3078   -0.3557 H   0  0  0  0  0  0  0  0  0  0  0  0
    4.6508    2.9423    0.3012 H   0  0  0  0  0  0  0  0  0  0  0  0
    3.5986    3.5068    1.5884 H   0  0  0  0  0  0  0  0  0  0  0  0
    3.6026    2.1265   -1.9096 H   0  0  0  0  0  0  0  0  0  0  0  0
    1.3633    4.2685    1.0907 H   0  0  0  0  0  0  0  0  0  0  0  0
    1.8743    2.6766   -3.5815 H   0  0  0  0  0  0  0  0  0  0  0  0
   -0.3539    4.8177   -0.5964 H   0  0  0  0  0  0  0  0  0  0  0  0
  1 37  1  0  0  0  0
  2 26  2  0  0  0  0
  3 27  1  0  0  0  0
  3 28  1  0  0  0  0
  4 27  2  0  0  0  0
  5  7  2  0  0  0  0
  5 29  1  0  0  0  0
  6  7  1  0  0  0  0
  6 30  1  0  0  0  0
  6 31  1  0  0  0  0
  8  9  1  0  0  0  0
  8 11  1  0  0  0  0
  8 12  1  0  0  0  0
  8 16  1  0  0  0  0
  9 10  1  0  0  0  0
  9 13  1  0  0  0  0
  9 38  1  0  0  0  0
 10 14  1  0  0  0  0
 10 19  1  0  0  0  0
 10 20  1  0  0  0  0
 11 18  1  0  0  0  0
 11 21  1  0  0  0  0
 11 39  1  0  0  0  0
 12 15  1  0  0  0  0
 12 40  1  0  0  0  0
 12 41  1  0  0  0  0
 13 17  1  0  0  0  0
 13 42  1  0  0  0  0
 13 43  1  0  0  0  0
 14 15  1  0  0  0  0
 14 44  1  0  0  0  0
 14 45  1  0  0  0  0
 15 46  1  0  0  0  0
 15 47  1  0  0  0  0
 16 48  1  0  0  0  0
 16 49  1  0  0  0  0
 16 50  1  0  0  0  0
 17 18  1  0  0  0  0
 17 51  1  0  0  0  0
 17 52  1  0  0  0  0
 18 22  2  0  0  0  0
 19 53  1  0  0  0  0
 19 54  1  0  0  0  0
 19 55  1  0  0  0  0
 20 56  1  0  0  0  0
 20 57  1  0  0  0  0
 20 58  1  0  0  0  0
 21 23  1  0  0  0  0
 21 59  1  0  0  0  0
 21 60  1  0  0  0  0
 22 61  1  0  0  0  0
 22 62  1  0  0  0  0
 23 24  2  0  0  0  0
 23 63  1  0  0  0  0
 24 25  1  0  0  0  0
 24 26  1  0  0  0  0
 25 27  1  0  0  0  0
 25 64  1  0  0  0  0
 25 65  1  0  0  0  0
 26 66  1  0  0  0  0
 28 29  1  0  0  0  0
 28 67  1  0  0  0  0
 28 68  1  0  0  0  0
 29 30  2  0  0  0  0
 30 69  1  0  0  0  0
 31 32  1  0  0  0  0
 31 70  1  0  0  0  0
 31 71  1  0  0  0  0
 32 33  2  0  0  0  0
 32 34  1  0  0  0  0
 33 35  1  0  0  0  0
 33 72  1  0  0  0  0
 34 36  2  0  0  0  0
 34 73  1  0  0  0  0
 35 37  2  0  0  0  0
 35 74  1  0  0  0  0
 36 37  1  0  0  0  0
 36 75  1  0  0  0  0
M  END
> <PUBCHEM_COMPOUND_CID>
145949928

> <PUBCHEM_CONFORMER_RMSD>
1.4

> <PUBCHEM_CONFORMER_DIVERSEORDER>
3
107
89
50
194
4
105
166
23
143
44
36
77
12
190
55
198
139
153
149
78
53
86
129
37
69
20
136
85
146
96
26
68
180
2
66
132
134
84
17
185
94
102
162
34
133
110
182
163
126
58
93
1
130
176
171
88
22
57
41
62
5
56
151
192
125
181
159
28
98
31
14
150
188
177
49
111
112
116
137
189
35
186
118
187
25
81
168
40
196
70
21
95
109
75
174
195
154
39
52
11
103
158
172
83
82
184
114
97
123
108
128
10
16
142
178
61
104
164
165
120
91
73
106
65
43
48
155
30
122
64
51
72
71
135
87
148
147
145
156
127
167
19
67
99
74
113
46
47
42
173
119
59
197
183
152
100
18
38
92
157
175
8
131
32
193
60
179
27
7
140
90
144
160
13
63
45
29
191
33
76
138
54
141
80
170
121
169
15
79
117
24
124
6
101
161
9
115

> <PUBCHEM_MMFF94_PARTIAL_CHARGES>
36
1 -0.19
11 0.14
17 0.14
18 -0.28
2 -0.57
21 0.14
22 -0.3
23 -0.29
24 -0.12
25 0.2
26 0.5
27 0.66
28 0.46
29 0.05
3 -0.43
30 -0.3
31 0.4
32 -0.14
33 -0.15
34 -0.15
35 -0.15
36 -0.15
37 0.19
4 -0.57
5 -0.23
6 0.31
61 0.15
62 0.15
63 0.15
66 0.06
69 0.15
7 -0.42
72 0.15
73 0.15
74 0.15
75 0.15

> <PUBCHEM_EFFECTIVE_ROTOR_COUNT>
11.4

> <PUBCHEM_PHARMACOPHORE_FEATURES>
7
1 2 acceptor
1 4 acceptor
3 10 19 20 hydrophobe
5 5 6 7 29 30 rings
6 32 33 34 35 36 37 rings
6 8 9 10 12 14 15 rings
6 8 9 11 13 17 18 rings

> <PUBCHEM_HEAVY_ATOM_COUNT>
37

> <PUBCHEM_ATOM_DEF_STEREO_COUNT>
2

> <PUBCHEM_ATOM_UDEF_STEREO_COUNT>
1

> <PUBCHEM_BOND_DEF_STEREO_COUNT>
1

> <PUBCHEM_BOND_UDEF_STEREO_COUNT>
0

> <PUBCHEM_ISOTOPIC_ATOM_COUNT>
0

> <PUBCHEM_COMPONENT_COUNT>
1

> <PUBCHEM_CACTVS_TAUTO_COUNT>
-1

> <PUBCHEM_CONFORMER_ID>
08B304E800000003

> <PUBCHEM_MMFF94_ENERGY>
83.7314

> <PUBCHEM_FEATURE_SELFOVERLAP>
35.539

> <PUBCHEM_SHAPE_FINGERPRINT>
10032420 55 14952634784337128638
10049733 135 17033094715858719953
10815517 723 18192410065860230976
11059048 146 18199751508565916674
11421498 54 17756740466996138598
12156800 1 13774465756872868132
12355185 1 17185890921491475619
12422481 6 18264770965841103321
12717326 69 17027718357929207539
12788726 201 17186452776222857831
14068700 675 16968268996770849064
14117953 113 18266432396376000302
14279260 333 12956521464601038724
14289585 56 18187642479898689924
14932702 115 14510738612544049932
150020 26 18197786492108131681
15274700 34 18187641445397218507
15297060 5 17987244519820400010
15419009 47 18126303058790139724
15444296 8 17464515521734066122
15790856 291 16808941691387822565
161222 10 17977112584658906268
16993438 75 17325474520006968496
19311894 1 17977113680155187276
19319366 153 17397818467830895522
20739085 24 18339081484403714818
20764821 26 17402024731578151332
21792965 11 17910941767112616025
3493558 16 17625538991565098721
35225 105 17403779963993909090
3534868 343 17548955103504137214
50150288 127 16821965775390170676
6287921 2 18272088253813805107

> <PUBCHEM_SHAPE_MULTIPOLES>
721.62
8.34
7.15
2.9
4
5.35
-0.02
-4.04
5.01
-4.39
-3.87
-0.43
-1.66
-3.17

> <PUBCHEM_SHAPE_SELFOVERLAP>
1520.299

> <PUBCHEM_SHAPE_VOLUME>
405

> <PUBCHEM_COORDINATE_TYPE>
2
5
10

$$$$
