145953842
  -OEChem-02142204383D

 79 82  0     1  0  0  0  0  0999 V2000
   -3.8018    4.1274   -1.8679 O   0  0  0  0  0  0  0  0  0  0  0  0
   -3.6654    1.6199    1.3116 O   0  0  0  0  0  0  0  0  0  0  0  0
   -3.3166    1.4611   -0.9626 O   0  0  0  0  0  0  0  0  0  0  0  0
    2.0457   -3.6441   -2.7563 O   0  0  0  0  0  0  0  0  0  0  0  0
   -3.0129   -0.9607    2.6186 N   0  0  0  0  0  0  0  0  0  0  0  0
   -2.7373   -2.6638    1.3336 N   0  0  0  0  0  0  0  0  0  0  0  0
   -2.4064   -2.1390    2.5247 N   0  0  0  0  0  0  0  0  0  0  0  0
    2.8731    1.7325   -0.2350 C   0  0  1  0  0  0  0  0  0  0  0  0
    2.3733    0.8910    1.0010 C   0  0  2  0  0  0  0  0  0  0  0  0
    3.4701    0.4758    2.0497 C   0  0  0  0  0  0  0  0  0  0  0  0
    1.6253    2.2692   -1.0466 C   0  0  1  0  0  0  0  0  0  0  0  0
    3.7468    2.9072    0.2727 C   0  0  0  0  0  0  0  0  0  0  0  0
    1.4490   -0.2662    0.5540 C   0  0  0  0  0  0  0  0  0  0  0  0
    4.3464    1.7046    2.4039 C   0  0  0  0  0  0  0  0  0  0  0  0
    4.8805    2.4654    1.1960 C   0  0  0  0  0  0  0  0  0  0  0  0
    3.7209    0.9068   -1.2455 C   0  0  0  0  0  0  0  0  0  0  0  0
    0.2637    0.2317   -0.2786 C   0  0  0  0  0  0  0  0  0  0  0  0
    0.7039    1.1156   -1.4146 C   0  0  0  0  0  0  0  0  0  0  0  0
    4.3627   -0.7008    1.6114 C   0  0  0  0  0  0  0  0  0  0  0  0
    2.7833    0.0255    3.3675 C   0  0  0  0  0  0  0  0  0  0  0  0
    0.8050    3.3734   -0.3611 C   0  0  0  0  0  0  0  0  0  0  0  0
    0.3276    0.8801   -2.6813 C   0  0  0  0  0  0  0  0  0  0  0  0
   -0.3346    3.8045   -1.2302 C   0  0  0  0  0  0  0  0  0  0  0  0
   -1.6423    3.7017   -0.9344 C   0  0  0  0  0  0  0  0  0  0  0  0
   -2.2291    3.2035    0.3544 C   0  0  0  0  0  0  0  0  0  0  0  0
   -2.5833    4.1647   -1.9924 C   0  0  0  0  0  0  0  0  0  0  0  0
   -3.1213    2.0023    0.1171 C   0  0  0  0  0  0  0  0  0  0  0  0
   -4.5343    0.4839    1.2574 C   0  0  0  0  0  0  0  0  0  0  0  0
   -3.7251   -0.7619    1.4684 C   0  0  0  0  0  0  0  0  0  0  0  0
   -3.5625   -1.8387    0.6335 C   0  0  0  0  0  0  0  0  0  0  0  0
   -2.2347   -3.9533    0.9329 C   0  0  0  0  0  0  0  0  0  0  0  0
   -1.0937   -3.8708   -0.0505 C   0  0  0  0  0  0  0  0  0  0  0  0
   -1.3496   -3.6022   -1.3952 C   0  0  0  0  0  0  0  0  0  0  0  0
    0.2174   -4.0633    0.3850 C   0  0  0  0  0  0  0  0  0  0  0  0
   -0.2944   -3.5261   -2.3042 C   0  0  0  0  0  0  0  0  0  0  0  0
    1.2726   -3.9872   -0.5241 C   0  0  0  0  0  0  0  0  0  0  0  0
    1.0166   -3.7187   -1.8687 C   0  0  0  0  0  0  0  0  0  0  0  0
    3.3613   -3.8510   -2.2440 C   0  0  0  0  0  0  0  0  0  0  0  0
    1.7210    1.5724    1.5676 H   0  0  0  0  0  0  0  0  0  0  0  0
    2.0182    2.7148   -1.9740 H   0  0  0  0  0  0  0  0  0  0  0  0
    3.1380    3.6169    0.8435 H   0  0  0  0  0  0  0  0  0  0  0  0
    4.1632    3.4650   -0.5752 H   0  0  0  0  0  0  0  0  0  0  0  0
    1.0426   -0.7944    1.4225 H   0  0  0  0  0  0  0  0  0  0  0  0
    2.0113   -1.0077   -0.0223 H   0  0  0  0  0  0  0  0  0  0  0  0
    3.7557    2.4068    3.0086 H   0  0  0  0  0  0  0  0  0  0  0  0
    5.1905    1.3994    3.0357 H   0  0  0  0  0  0  0  0  0  0  0  0
    5.6177    1.8623    0.6579 H   0  0  0  0  0  0  0  0  0  0  0  0
    5.4182    3.3548    1.5467 H   0  0  0  0  0  0  0  0  0  0  0  0
    3.2258   -0.0145   -1.5640 H   0  0  0  0  0  0  0  0  0  0  0  0
    4.7031    0.6321   -0.8654 H   0  0  0  0  0  0  0  0  0  0  0  0
    3.9145    1.4938   -2.1521 H   0  0  0  0  0  0  0  0  0  0  0  0
   -0.3026   -0.6323   -0.6443 H   0  0  0  0  0  0  0  0  0  0  0  0
   -0.4180    0.7893    0.3719 H   0  0  0  0  0  0  0  0  0  0  0  0
    5.0287   -0.4536    0.7867 H   0  0  0  0  0  0  0  0  0  0  0  0
    5.0122   -1.0193    2.4365 H   0  0  0  0  0  0  0  0  0  0  0  0
    3.7711   -1.5746    1.3211 H   0  0  0  0  0  0  0  0  0  0  0  0
    2.0700    0.7772    3.7236 H   0  0  0  0  0  0  0  0  0  0  0  0
    3.5219   -0.1270    4.1636 H   0  0  0  0  0  0  0  0  0  0  0  0
    2.2446   -0.9196    3.2462 H   0  0  0  0  0  0  0  0  0  0  0  0
    1.4281    4.2640   -0.2198 H   0  0  0  0  0  0  0  0  0  0  0  0
    0.4870    3.0730    0.6375 H   0  0  0  0  0  0  0  0  0  0  0  0
    0.6590    1.5143   -3.4965 H   0  0  0  0  0  0  0  0  0  0  0  0
   -0.3215    0.0474   -2.9306 H   0  0  0  0  0  0  0  0  0  0  0  0
   -0.0378    4.2157   -2.1945 H   0  0  0  0  0  0  0  0  0  0  0  0
   -2.8399    4.0010    0.7944 H   0  0  0  0  0  0  0  0  0  0  0  0
   -1.4756    2.9177    1.0901 H   0  0  0  0  0  0  0  0  0  0  0  0
   -2.1211    4.5473   -2.9181 H   0  0  0  0  0  0  0  0  0  0  0  0
   -5.1058    0.4487    0.3227 H   0  0  0  0  0  0  0  0  0  0  0  0
   -5.2569    0.5853    2.0742 H   0  0  0  0  0  0  0  0  0  0  0  0
   -3.9511   -2.0759   -0.3466 H   0  0  0  0  0  0  0  0  0  0  0  0
   -3.0695   -4.5132    0.4933 H   0  0  0  0  0  0  0  0  0  0  0  0
   -1.9374   -4.5016    1.8352 H   0  0  0  0  0  0  0  0  0  0  0  0
   -2.3656   -3.4574   -1.7515 H   0  0  0  0  0  0  0  0  0  0  0  0
    0.4298   -4.2694    1.4307 H   0  0  0  0  0  0  0  0  0  0  0  0
   -0.4998   -3.3170   -3.3505 H   0  0  0  0  0  0  0  0  0  0  0  0
    2.2661   -4.1438   -0.1180 H   0  0  0  0  0  0  0  0  0  0  0  0
    4.0548   -3.7565   -3.0861 H   0  0  0  0  0  0  0  0  0  0  0  0
    3.6349   -3.0791   -1.5164 H   0  0  0  0  0  0  0  0  0  0  0  0
    3.4822   -4.8625   -1.8416 H   0  0  0  0  0  0  0  0  0  0  0  0
  1 26  2  0  0  0  0
  2 27  1  0  0  0  0
  2 28  1  0  0  0  0
  3 27  2  0  0  0  0
  4 37  1  0  0  0  0
  4 38  1  0  0  0  0
  5  7  2  0  0  0  0
  5 29  1  0  0  0  0
  6  7  1  0  0  0  0
  6 30  1  0  0  0  0
  6 31  1  0  0  0  0
  8  9  1  0  0  0  0
  8 11  1  0  0  0  0
  8 12  1  0  0  0  0
  8 16  1  0  0  0  0
  9 10  1  0  0  0  0
  9 13  1  0  0  0  0
  9 39  1  0  0  0  0
 10 14  1  0  0  0  0
 10 19  1  0  0  0  0
 10 20  1  0  0  0  0
 11 18  1  0  0  0  0
 11 21  1  0  0  0  0
 11 40  1  0  0  0  0
 12 15  1  0  0  0  0
 12 41  1  0  0  0  0
 12 42  1  0  0  0  0
 13 17  1  0  0  0  0
 13 43  1  0  0  0  0
 13 44  1  0  0  0  0
 14 15  1  0  0  0  0
 14 45  1  0  0  0  0
 14 46  1  0  0  0  0
 15 47  1  0  0  0  0
 15 48  1  0  0  0  0
 16 49  1  0  0  0  0
 16 50  1  0  0  0  0
 16 51  1  0  0  0  0
 17 18  1  0  0  0  0
 17 52  1  0  0  0  0
 17 53  1  0  0  0  0
 18 22  2  0  0  0  0
 19 54  1  0  0  0  0
 19 55  1  0  0  0  0
 19 56  1  0  0  0  0
 20 57  1  0  0  0  0
 20 58  1  0  0  0  0
 20 59  1  0  0  0  0
 21 23  1  0  0  0  0
 21 60  1  0  0  0  0
 21 61  1  0  0  0  0
 22 62  1  0  0  0  0
 22 63  1  0  0  0  0
 23 24  2  0  0  0  0
 23 64  1  0  0  0  0
 24 25  1  0  0  0  0
 24 26  1  0  0  0  0
 25 27  1  0  0  0  0
 25 65  1  0  0  0  0
 25 66  1  0  0  0  0
 26 67  1  0  0  0  0
 28 29  1  0  0  0  0
 28 68  1  0  0  0  0
 28 69  1  0  0  0  0
 29 30  2  0  0  0  0
 30 70  1  0  0  0  0
 31 32  1  0  0  0  0
 31 71  1  0  0  0  0
 31 72  1  0  0  0  0
 32 33  2  0  0  0  0
 32 34  1  0  0  0  0
 33 35  1  0  0  0  0
 33 73  1  0  0  0  0
 34 36  2  0  0  0  0
 34 74  1  0  0  0  0
 35 37  2  0  0  0  0
 35 75  1  0  0  0  0
 36 37  1  0  0  0  0
 36 76  1  0  0  0  0
 38 77  1  0  0  0  0
 38 78  1  0  0  0  0
 38 79  1  0  0  0  0
M  END
> <PUBCHEM_COMPOUND_CID>
145953842

> <PUBCHEM_CONFORMER_RMSD>
1.4

> <PUBCHEM_CONFORMER_DIVERSEORDER>
2
105
82
187
188
56
196
116
45
124
150
119
144
60
152
25
192
198
148
147
77
36
61
14
153
140
135
131
123
175
23
183
22
52
43
189
129
3
173
168
66
18
87
11
141
180
143
93
20
201
177
35
174
7
182
164
170
128
146
117
161
197
199
169
84
122
29
59
88
95
1
78
145
44
41
62
26
31
195
159
102
106
155
181
5
97
165
149
42
176
81
191
200
71
55
138
79
108
100
126
157
136
158
156
8
132
178
53
127
134
112
186
4
162
111
115
114
76
90
137
39
139
34
85
110
98
96
120
171
64
86
68
130
94
89
69
75
30
58
70
172
32
154
121
80
65
10
166
151
47
83
193
74
185
118
21
12
91
40
107
72
109
103
125
67
28
163
92
194
27
46
51
24
133
101
37
48
104
13
160
167
49
15
19
54
113
179
17
38
9
184
33
63
50
190
142
57
99
6
73
16

> <PUBCHEM_MMFF94_PARTIAL_CHARGES>
37
1 -0.57
11 0.14
17 0.14
18 -0.28
2 -0.43
21 0.14
22 -0.3
23 -0.29
24 -0.12
25 0.2
26 0.5
27 0.66
28 0.46
29 0.05
3 -0.57
30 -0.3
31 0.4
32 -0.14
33 -0.15
34 -0.15
35 -0.15
36 -0.15
37 0.08
38 0.28
4 -0.36
5 -0.23
6 0.31
62 0.15
63 0.15
64 0.15
67 0.06
7 -0.42
70 0.15
73 0.15
74 0.15
75 0.15
76 0.15

> <PUBCHEM_EFFECTIVE_ROTOR_COUNT>
12.4

> <PUBCHEM_PHARMACOPHORE_FEATURES>
8
1 1 acceptor
1 3 acceptor
1 4 acceptor
3 10 19 20 hydrophobe
5 5 6 7 29 30 rings
6 32 33 34 35 36 37 rings
6 8 9 10 12 14 15 rings
6 8 9 11 13 17 18 rings

> <PUBCHEM_HEAVY_ATOM_COUNT>
38

> <PUBCHEM_ATOM_DEF_STEREO_COUNT>
2

> <PUBCHEM_ATOM_UDEF_STEREO_COUNT>
1

> <PUBCHEM_BOND_DEF_STEREO_COUNT>
1

> <PUBCHEM_BOND_UDEF_STEREO_COUNT>
0

> <PUBCHEM_ISOTOPIC_ATOM_COUNT>
0

> <PUBCHEM_COMPONENT_COUNT>
1

> <PUBCHEM_CACTVS_TAUTO_COUNT>
-1

> <PUBCHEM_CONFORMER_ID>
08B3143200000002

> <PUBCHEM_MMFF94_ENERGY>
97.4059

> <PUBCHEM_FEATURE_SELFOVERLAP>
40.614

> <PUBCHEM_SHAPE_FINGERPRINT>
10010297 198 18114742767623564944
10032420 55 17254272328524598678
10462674 125 16333252631606333934
10794284 68 18189897699118818280
10815517 723 17908142432430780160
10940486 97 17190959662117226284
12156800 1 17679879110824797802
12422481 6 18411980295822826850
12522641 24 17623302576788725409
12717326 25 17844501376913423122
14040221 299 18271815652418811256
14114207 22 16157326012211511259
14117953 113 18194692690358930119
14725015 67 18045233652428684283
14856354 85 17825955003369023112
14932702 115 17471601839715220766
15297060 5 16906986512972369331
15968369 26 17539396644372767900
161222 619 17982999060776457338
17974551 9 17196327056787992265
20764821 26 18046932410461904375
21033648 29 17845101825155258200
21795232 338 18265870576848109872
238918 7 18267856199224760418
35225 105 17630595932649687138
45266715 3 17539948599738361605
469060 322 18057307591323488917
474144 1 16322876630062793047
5171179 24 18198627622840934983
86090 222 17686062691236426097

> <PUBCHEM_SHAPE_MULTIPOLES>
743.6
8.14
7.65
3.02
4.01
0.74
0.41
0.11
6.23
-5.21
-6.24
0.46
-1.38
-0.3

> <PUBCHEM_SHAPE_SELFOVERLAP>
1561.853

> <PUBCHEM_SHAPE_VOLUME>
417.1

> <PUBCHEM_COORDINATE_TYPE>
2
5
10

$$$$
