9839754
  -OEChem-02152223543D

 39 41  0     0  0  0  0  0  0999 V2000
   -2.0761    0.2669   -0.0373 O   0  0  0  0  0  0  0  0  0  0  0  0
    4.8954    0.3164    0.0203 O   0  0  0  0  0  0  0  0  0  0  0  0
    4.9471   -1.9583    0.0083 O   0  0  0  0  0  0  0  0  0  0  0  0
    4.1182    2.4801    0.0259 O   0  0  0  0  0  0  0  0  0  0  0  0
    2.7164    0.5900    0.0031 N   0  0  0  0  0  0  0  0  0  0  0  0
    2.9140   -0.7591   -0.0032 N   0  0  0  0  0  0  0  0  0  0  0  0
    1.4617    1.2002   -0.0040 C   0  0  0  0  0  0  0  0  0  0  0  0
   -0.9409    1.0342   -0.0239 C   0  0  0  0  0  0  0  0  0  0  0  0
    0.3061    0.4191   -0.0178 C   0  0  0  0  0  0  0  0  0  0  0  0
   -3.3179    0.9602   -0.0428 C   0  0  0  0  0  0  0  0  0  0  0  0
   -4.4360   -0.0267   -0.0135 C   0  0  0  0  0  0  0  0  0  0  0  0
    1.3629    2.5916    0.0034 C   0  0  0  0  0  0  0  0  0  0  0  0
   -1.0469    2.4206   -0.0164 C   0  0  0  0  0  0  0  0  0  0  0  0
    0.1087    3.2019   -0.0028 C   0  0  0  0  0  0  0  0  0  0  0  0
    3.9144    1.2760    0.0176 C   0  0  0  0  0  0  0  0  0  0  0  0
   -4.9681   -0.5134   -1.2076 C   0  0  0  0  0  0  0  0  0  0  0  0
   -4.9498   -0.4624    1.2078 C   0  0  0  0  0  0  0  0  0  0  0  0
    4.1991   -0.8424    0.0072 C   0  0  0  0  0  0  0  0  0  0  0  0
   -6.0140   -1.4359   -1.1802 C   0  0  0  0  0  0  0  0  0  0  0  0
   -5.9957   -1.3850    1.2352 C   0  0  0  0  0  0  0  0  0  0  0  0
   -6.5278   -1.8717    0.0411 C   0  0  0  0  0  0  0  0  0  0  0  0
    4.1902   -3.1613   -0.0039 C   0  0  0  0  0  0  0  0  0  0  0  0
    5.1390   -4.3408   -0.0166 C   0  0  0  0  0  0  0  0  0  0  0  0
    0.3562   -0.6667   -0.0238 H   0  0  0  0  0  0  0  0  0  0  0  0
   -3.4158    1.5753   -0.9474 H   0  0  0  0  0  0  0  0  0  0  0  0
   -3.4106    1.6063    0.8406 H   0  0  0  0  0  0  0  0  0  0  0  0
    2.1903    3.2836    0.0137 H   0  0  0  0  0  0  0  0  0  0  0  0
   -1.9848    2.9641   -0.0243 H   0  0  0  0  0  0  0  0  0  0  0  0
    0.0309    4.2855    0.0021 H   0  0  0  0  0  0  0  0  0  0  0  0
   -4.5752   -0.1838   -2.1658 H   0  0  0  0  0  0  0  0  0  0  0  0
   -4.5427   -0.0930    2.1454 H   0  0  0  0  0  0  0  0  0  0  0  0
   -6.4279   -1.8156   -2.1098 H   0  0  0  0  0  0  0  0  0  0  0  0
   -6.3954   -1.7249    2.1861 H   0  0  0  0  0  0  0  0  0  0  0  0
   -7.3419   -2.5902    0.0625 H   0  0  0  0  0  0  0  0  0  0  0  0
    3.5591   -3.2155    0.8910 H   0  0  0  0  0  0  0  0  0  0  0  0
    3.5580   -3.1983   -0.8989 H   0  0  0  0  0  0  0  0  0  0  0  0
    4.5885   -5.2857   -0.0258 H   0  0  0  0  0  0  0  0  0  0  0  0
    5.7901   -4.3027   -0.8963 H   0  0  0  0  0  0  0  0  0  0  0  0
    5.7912   -4.3206    0.8628 H   0  0  0  0  0  0  0  0  0  0  0  0
  1  8  1  0  0  0  0
  1 10  1  0  0  0  0
  2 15  1  0  0  0  0
  2 18  1  0  0  0  0
  3 18  1  0  0  0  0
  3 22  1  0  0  0  0
  4 15  2  0  0  0  0
  5  6  1  0  0  0  0
  5  7  1  0  0  0  0
  5 15  1  0  0  0  0
  6 18  2  0  0  0  0
  7  9  2  0  0  0  0
  7 12  1  0  0  0  0
  8  9  1  0  0  0  0
  8 13  2  0  0  0  0
  9 24  1  0  0  0  0
 10 11  1  0  0  0  0
 10 25  1  0  0  0  0
 10 26  1  0  0  0  0
 11 16  2  0  0  0  0
 11 17  1  0  0  0  0
 12 14  2  0  0  0  0
 12 27  1  0  0  0  0
 13 14  1  0  0  0  0
 13 28  1  0  0  0  0
 14 29  1  0  0  0  0
 16 19  1  0  0  0  0
 16 30  1  0  0  0  0
 17 20  2  0  0  0  0
 17 31  1  0  0  0  0
 19 21  2  0  0  0  0
 19 32  1  0  0  0  0
 20 21  1  0  0  0  0
 20 33  1  0  0  0  0
 21 34  1  0  0  0  0
 22 23  1  0  0  0  0
 22 35  1  0  0  0  0
 22 36  1  0  0  0  0
 23 37  1  0  0  0  0
 23 38  1  0  0  0  0
 23 39  1  0  0  0  0
M  END
> <PUBCHEM_COMPOUND_CID>
9839754

> <PUBCHEM_CONFORMER_RMSD>
0.8

> <PUBCHEM_CONFORMER_DIVERSEORDER>
1
137
92
15
71
169
109
153
102
58
64
162
151
145
119
112
27
148
101
170
94
18
152
142
82
30
93
138
132
8
155
135
86
33
117
44
168
31
36
28
164
128
160
79
150
91
74
100
122
116
43
134
115
106
96
4
141
50
143
131
103
52
97
17
154
75
53
89
175
32
19
99
90
158
174
83
25
62
54
149
157
136
45
12
118
38
98
26
159
120
47
69
34
42
85
167
113
111
11
41
6
65
56
147
46
104
80
77
76
67
13
161
72
163
40
107
57
51
81
105
35
16
84
144
165
110
78
2
63
171
68
73
66
95
133
61
23
129
123
126
9
173
146
121
49
21
20
166
156
22
88
48
37
10
124
7
114
125
108
140
14
3
29
139
59
87
60
172
55
130
5
24
127
70
39

> <PUBCHEM_MMFF94_PARTIAL_CHARGES>
31
1 -0.36
10 0.42
11 -0.14
12 -0.15
13 -0.15
14 -0.15
15 0.78
16 -0.15
17 -0.15
18 0.75
19 -0.15
2 -0.3
20 -0.15
21 -0.15
22 0.28
24 0.15
27 0.15
28 0.15
29 0.15
3 -0.43
30 0.15
31 0.15
32 0.15
33 0.15
34 0.15
4 -0.57
5 -0.11
6 -0.51
7 0.12
8 0.08
9 -0.15

> <PUBCHEM_EFFECTIVE_ROTOR_COUNT>
6

> <PUBCHEM_PHARMACOPHORE_FEATURES>
5
1 1 acceptor
1 4 acceptor
5 2 5 6 15 18 rings
6 11 16 17 19 20 21 rings
6 7 8 9 12 13 14 rings

> <PUBCHEM_HEAVY_ATOM_COUNT>
23

> <PUBCHEM_ATOM_DEF_STEREO_COUNT>
0

> <PUBCHEM_ATOM_UDEF_STEREO_COUNT>
0

> <PUBCHEM_BOND_DEF_STEREO_COUNT>
0

> <PUBCHEM_BOND_UDEF_STEREO_COUNT>
0

> <PUBCHEM_ISOTOPIC_ATOM_COUNT>
0

> <PUBCHEM_COMPONENT_COUNT>
1

> <PUBCHEM_CACTVS_TAUTO_COUNT>
1

> <PUBCHEM_CONFORMER_ID>
0096248A00000001

> <PUBCHEM_MMFF94_ENERGY>
72.0913

> <PUBCHEM_FEATURE_SELFOVERLAP>
25.373

> <PUBCHEM_SHAPE_FINGERPRINT>
10571361 74 18058437867882063311
10693767 8 18340189856971450839
11763715 3 18193019070136849532
11796584 16 17603860126810267993
11963148 33 18337666511997964478
12107183 9 18127140671517466585
12236239 1 17845942943656851777
12422481 6 17203047361697428967
12596602 18 17132120186003469713
12623949 98 18200604609588553662
13073987 5 18342459253112881201
13533116 47 18342740740620546290
13551218 46 18413390938843870911
13685833 64 18262521506931189625
13862211 1 18410289224540602841
13911852 28 18411980230722531623
13955234 65 18199464553116562608
14251740 57 18411976932383093770
14251764 30 18409730642859422659
14429380 30 18264770944255237050
14528608 73 8214147339476196025
14866123 147 18051697646791542913
15348495 7 11672061969268006381
15510800 12 18113907048007028186
17492 89 18266739087369384450
17857418 61 18201438138376227917
17870717 6 17022617607623731875
20028762 73 18343016649584489638
20281389 69 10807943661017745987
20398071 356 18339366266679680231
20567600 247 18270958063666877391
20645477 70 18333447668495778440
20715895 44 8862936165852144702
21033650 10 16299228999703308013
21267235 1 18413114965767641748
21279426 13 18187640263727129335
21478907 32 18339360760235915309
21682296 61 18410577254202318823
22224240 67 18128246990916605744
22950370 63 18411422791212352473
23522609 53 18053137044498132928
23559900 14 18193546775799233184
23569914 152 17688835707217567327
239999 70 17822007670399335696
2916195 48 11383838169222628413
3004659 81 18040995142123855200
314194 84 18341050813018961273
3421961 26 18412261769971069896
345986 75 17775569727648184552
34797466 226 16515692194868353357
46194498 28 17531240733606819725
465052 167 18343587364515911590
50009960 94 17971452028432817818
5104073 3 18130788906320994632
5718773 13 18263075527521755658
636775 72 8715960053038348942
7970288 3 18411415090304751487

> <PUBCHEM_SHAPE_MULTIPOLES>
439.89
16.42
4.03
0.87
12.24
2.23
0.01
16.19
0.14
-6.97
-0.01
1.51
0.26
0.05

> <PUBCHEM_SHAPE_SELFOVERLAP>
951.573

> <PUBCHEM_SHAPE_VOLUME>
242.2

> <PUBCHEM_COORDINATE_TYPE>
2
5
10

$$$$
