145971480
  -OEChem-02152210383D

 58 59  0     1  0  0  0  0  0999 V2000
    4.7510    2.7583    0.8231 O   0  0  0  0  0  0  0  0  0  0  0  0
    3.0666   -1.6425    0.2219 O   0  0  0  0  0  0  0  0  0  0  0  0
    3.6317    0.1579   -1.1041 O   0  0  0  0  0  0  0  0  0  0  0  0
   -1.5981   -0.3330   -0.1843 C   0  0  1  0  0  0  0  0  0  0  0  0
   -2.9101    0.4967    0.0907 C   0  0  2  0  0  0  0  0  0  0  0  0
   -4.1998   -0.3351    0.4376 C   0  0  0  0  0  0  0  0  0  0  0  0
   -0.3611    0.6498   -0.2702 C   0  0  1  0  0  0  0  0  0  0  0  0
   -1.4039   -1.3650    0.9553 C   0  0  0  0  0  0  0  0  0  0  0  0
   -3.1238    1.5817   -0.9911 C   0  0  0  0  0  0  0  0  0  0  0  0
   -3.8611   -1.4015    1.5106 C   0  0  0  0  0  0  0  0  0  0  0  0
   -2.6304   -2.2432    1.1942 C   0  0  0  0  0  0  0  0  0  0  0  0
   -1.6260   -1.1086   -1.5333 C   0  0  0  0  0  0  0  0  0  0  0  0
   -1.9126    2.5099   -1.1236 C   0  0  0  0  0  0  0  0  0  0  0  0
   -0.6295    1.7418   -1.2952 C   0  0  0  0  0  0  0  0  0  0  0  0
   -5.2678    0.6018    1.0643 C   0  0  0  0  0  0  0  0  0  0  0  0
   -4.8774   -1.0019   -0.7746 C   0  0  0  0  0  0  0  0  0  0  0  0
    0.0748    1.2953    1.0548 C   0  0  0  0  0  0  0  0  0  0  0  0
    0.2124    1.9884   -2.3110 C   0  0  0  0  0  0  0  0  0  0  0  0
    1.2571    2.1888    0.8458 C   0  0  0  0  0  0  0  0  0  0  0  0
    2.5495    1.8363    0.9621 C   0  0  0  0  0  0  0  0  0  0  0  0
    3.0767    0.4610    1.2523 C   0  0  0  0  0  0  0  0  0  0  0  0
    3.5398    2.9277    0.7450 C   0  0  0  0  0  0  0  0  0  0  0  0
    3.2970   -0.3182   -0.0280 C   0  0  0  0  0  0  0  0  0  0  0  0
    3.2417   -2.5199   -0.8952 C   0  0  0  0  0  0  0  0  0  0  0  0
    2.9648   -3.8975   -0.4890 C   0  0  0  0  0  0  0  0  0  0  0  0
    2.7383   -5.0289   -0.1577 C   0  0  0  0  0  0  0  0  0  0  0  0
   -2.7051    1.0549    1.0171 H   0  0  0  0  0  0  0  0  0  0  0  0
    0.4924    0.0477   -0.6149 H   0  0  0  0  0  0  0  0  0  0  0  0
   -1.2006   -0.8562    1.9033 H   0  0  0  0  0  0  0  0  0  0  0  0
   -0.5335   -2.0001    0.7486 H   0  0  0  0  0  0  0  0  0  0  0  0
   -3.9900    2.2047   -0.7459 H   0  0  0  0  0  0  0  0  0  0  0  0
   -3.3397    1.1252   -1.9630 H   0  0  0  0  0  0  0  0  0  0  0  0
   -4.7190   -2.0680    1.6674 H   0  0  0  0  0  0  0  0  0  0  0  0
   -3.6876   -0.9019    2.4738 H   0  0  0  0  0  0  0  0  0  0  0  0
   -2.8223   -2.8972    0.3385 H   0  0  0  0  0  0  0  0  0  0  0  0
   -2.4290   -2.9093    2.0421 H   0  0  0  0  0  0  0  0  0  0  0  0
   -1.8809   -0.4725   -2.3850 H   0  0  0  0  0  0  0  0  0  0  0  0
   -2.3181   -1.9485   -1.5367 H   0  0  0  0  0  0  0  0  0  0  0  0
   -0.6409   -1.5439   -1.7444 H   0  0  0  0  0  0  0  0  0  0  0  0
   -1.8369    3.1395   -0.2288 H   0  0  0  0  0  0  0  0  0  0  0  0
   -2.0819    3.1927   -1.9651 H   0  0  0  0  0  0  0  0  0  0  0  0
   -5.6700    1.3108    0.3338 H   0  0  0  0  0  0  0  0  0  0  0  0
   -4.8540    1.1766    1.9004 H   0  0  0  0  0  0  0  0  0  0  0  0
   -6.1167    0.0260    1.4522 H   0  0  0  0  0  0  0  0  0  0  0  0
   -5.0995   -0.2790   -1.5656 H   0  0  0  0  0  0  0  0  0  0  0  0
   -5.8339   -1.4523   -0.4810 H   0  0  0  0  0  0  0  0  0  0  0  0
   -4.2893   -1.8088   -1.2081 H   0  0  0  0  0  0  0  0  0  0  0  0
   -0.7275    1.8890    1.5070 H   0  0  0  0  0  0  0  0  0  0  0  0
    0.3265    0.5331    1.7959 H   0  0  0  0  0  0  0  0  0  0  0  0
    1.1289    1.4215   -2.4353 H   0  0  0  0  0  0  0  0  0  0  0  0
    0.0039    2.7629   -3.0413 H   0  0  0  0  0  0  0  0  0  0  0  0
    1.0075    3.2243    0.6173 H   0  0  0  0  0  0  0  0  0  0  0  0
    4.0269    0.5020    1.7958 H   0  0  0  0  0  0  0  0  0  0  0  0
    2.3800   -0.0873    1.8948 H   0  0  0  0  0  0  0  0  0  0  0  0
    3.1221    3.9209    0.5079 H   0  0  0  0  0  0  0  0  0  0  0  0
    2.5554   -2.2231   -1.6966 H   0  0  0  0  0  0  0  0  0  0  0  0
    4.2718   -2.4386   -1.2603 H   0  0  0  0  0  0  0  0  0  0  0  0
    2.5371   -6.0325    0.1362 H   0  0  0  0  0  0  0  0  0  0  0  0
  1 22  2  0  0  0  0
  2 23  1  0  0  0  0
  2 24  1  0  0  0  0
  3 23  2  0  0  0  0
  4  5  1  0  0  0  0
  4  7  1  0  0  0  0
  4  8  1  0  0  0  0
  4 12  1  0  0  0  0
  5  6  1  0  0  0  0
  5  9  1  0  0  0  0
  5 27  1  0  0  0  0
  6 10  1  0  0  0  0
  6 15  1  0  0  0  0
  6 16  1  0  0  0  0
  7 14  1  0  0  0  0
  7 17  1  0  0  0  0
  7 28  1  0  0  0  0
  8 11  1  0  0  0  0
  8 29  1  0  0  0  0
  8 30  1  0  0  0  0
  9 13  1  0  0  0  0
  9 31  1  0  0  0  0
  9 32  1  0  0  0  0
 10 11  1  0  0  0  0
 10 33  1  0  0  0  0
 10 34  1  0  0  0  0
 11 35  1  0  0  0  0
 11 36  1  0  0  0  0
 12 37  1  0  0  0  0
 12 38  1  0  0  0  0
 12 39  1  0  0  0  0
 13 14  1  0  0  0  0
 13 40  1  0  0  0  0
 13 41  1  0  0  0  0
 14 18  2  0  0  0  0
 15 42  1  0  0  0  0
 15 43  1  0  0  0  0
 15 44  1  0  0  0  0
 16 45  1  0  0  0  0
 16 46  1  0  0  0  0
 16 47  1  0  0  0  0
 17 19  1  0  0  0  0
 17 48  1  0  0  0  0
 17 49  1  0  0  0  0
 18 50  1  0  0  0  0
 18 51  1  0  0  0  0
 19 20  2  0  0  0  0
 19 52  1  0  0  0  0
 20 21  1  0  0  0  0
 20 22  1  0  0  0  0
 21 23  1  0  0  0  0
 21 53  1  0  0  0  0
 21 54  1  0  0  0  0
 22 55  1  0  0  0  0
 24 25  1  0  0  0  0
 24 56  1  0  0  0  0
 24 57  1  0  0  0  0
 25 26  3  0  0  0  0
 26 58  1  0  0  0  0
M  END
> <PUBCHEM_COMPOUND_CID>
145971480

> <PUBCHEM_CONFORMER_RMSD>
1

> <PUBCHEM_CONFORMER_DIVERSEORDER>
1
24
54
33
31
36
8
114
102
79
37
101
49
34
67
65
109
6
96
81
71
44
63
26
66
83
112
35
55
23
78
93
14
64
47
17
46
98
73
106
45
27
72
25
110
70
21
107
88
104
116
60
108
5
76
56
69
2
39
113
84
115
15
100
13
94
53
75
77
48
82
30
95
89
18
97
87
99
57
117
59
22
61
4
10
105
16
19
38
9
62
80
29
28
58
11
90
42
52
92
50
86
111
20
40
51
3
41
12
74
91
85
103
32
43
7
68

> <PUBCHEM_MMFF94_PARTIAL_CHARGES>
21
1 -0.57
13 0.14
14 -0.28
17 0.14
18 -0.3
19 -0.29
2 -0.43
20 -0.12
21 0.2
22 0.5
23 0.66
24 0.48
25 -0.2
26 -0.18
3 -0.57
50 0.15
51 0.15
52 0.15
55 0.06
58 0.18
7 0.14

> <PUBCHEM_EFFECTIVE_ROTOR_COUNT>
8.4

> <PUBCHEM_PHARMACOPHORE_FEATURES>
6
1 1 acceptor
1 26 hydrophobe
1 3 acceptor
3 6 15 16 hydrophobe
6 4 5 6 8 10 11 rings
6 4 5 7 9 13 14 rings

> <PUBCHEM_HEAVY_ATOM_COUNT>
26

> <PUBCHEM_ATOM_DEF_STEREO_COUNT>
2

> <PUBCHEM_ATOM_UDEF_STEREO_COUNT>
1

> <PUBCHEM_BOND_DEF_STEREO_COUNT>
1

> <PUBCHEM_BOND_UDEF_STEREO_COUNT>
0

> <PUBCHEM_ISOTOPIC_ATOM_COUNT>
0

> <PUBCHEM_COMPONENT_COUNT>
1

> <PUBCHEM_CACTVS_TAUTO_COUNT>
-1

> <PUBCHEM_CONFORMER_ID>
08B3591800000001

> <PUBCHEM_MMFF94_ENERGY>
64.7525

> <PUBCHEM_FEATURE_SELFOVERLAP>
30.46

> <PUBCHEM_SHAPE_FINGERPRINT>
10064457 181 17765998681366609912
10366900 7 18409454686815499846
10369192 42 18052818341515163756
10764073 3 17766012601493051829
11370993 144 18341056237832162593
12107183 9 17842007585161007497
12403259 226 18119248354992910622
12553582 1 17749674098789705661
12633257 1 17775287144627595598
12892183 10 18271254923174121273
13402501 40 18407762534383887090
1361 2 18268141140535958615
13757389 114 17544773677709762500
144659 178 16899892588589107471
14659021 117 16970824794275176434
14866123 147 17116919115384300008
15324884 4 17902537087797772106
15635459 17 18410012139295035346
15664445 248 17749682869276545716
1813 80 17023182773057857941
1979834 28 18263654020291161138
19930381 70 18342453695071804555
20693207 138 18335987454598974708
20775530 9 18120098277797906782
21279426 13 18047750404416237997
22182313 1 18113889434572642845
23419403 2 18267016163962169501
23559900 14 18260277342878422902
345986 75 17631454470979296563
437815 12 18127421046586806230
463206 1 16900170764883579631
5309563 4 18055073160015319638
6433294 58 18410013217363806314
6442390 28 18195809794103970548
7399639 24 18336817697705772652
9709674 26 18408880707290824290
9925002 15 16893137185121888868

> <PUBCHEM_SHAPE_MULTIPOLES>
517.46
9.37
4.62
1.62
2.41
4.66
-0.39
1.72
1.92
-6.77
-0.37
0.44
-0.54
2.33

> <PUBCHEM_SHAPE_SELFOVERLAP>
1052.363

> <PUBCHEM_SHAPE_VOLUME>
297.5

> <PUBCHEM_COORDINATE_TYPE>
2
5
10

$$$$
