46898597
  -OEChem-02152210483D

 32 33  0     1  0  0  0  0  0999 V2000
    2.6636   -1.2253    0.9897 O   0  0  0  0  0  0  0  0  0  0  0  0
    2.6248   -2.4711   -0.9662 O   0  0  0  0  0  0  0  0  0  0  0  0
    0.8167    3.7211   -0.0767 O   0  0  0  0  0  0  0  0  0  0  0  0
   -4.9311   -0.0917    0.5939 O   0  0  0  0  0  0  0  0  0  0  0  0
    0.8688   -0.8206   -0.0678 C   0  0  2  0  0  0  0  0  0  0  0  0
    1.5007   -0.3875    1.2623 C   0  0  2  0  0  0  0  0  0  0  0  0
    1.7996    1.1046    1.1134 C   0  0  0  0  0  0  0  0  0  0  0  0
    0.8726    0.3574   -0.9461 C   0  0  0  0  0  0  0  0  0  0  0  0
   -0.4500   -1.5776   -0.0084 C   0  0  0  0  0  0  0  0  0  0  0  0
    2.1459   -1.6784   -0.1870 C   0  0  0  0  0  0  0  0  0  0  0  0
    1.3816    1.4152   -0.2996 C   0  0  0  0  0  0  0  0  0  0  0  0
    1.5523    2.7858   -0.8510 C   0  0  0  0  0  0  0  0  0  0  0  0
   -1.5169   -0.6622    0.5166 C   0  0  0  0  0  0  0  0  0  0  0  0
   -2.6545   -0.2857   -0.0987 C   0  0  0  0  0  0  0  0  0  0  0  0
   -3.6996    0.6124    0.5056 C   0  0  0  0  0  0  0  0  0  0  0  0
   -2.9745   -0.7962   -1.4800 C   0  0  0  0  0  0  0  0  0  0  0  0
    1.0102   -0.6890    2.1929 H   0  0  0  0  0  0  0  0  0  0  0  0
    2.8588    1.3248    1.2795 H   0  0  0  0  0  0  0  0  0  0  0  0
    1.1988    1.6863    1.8204 H   0  0  0  0  0  0  0  0  0  0  0  0
    0.5190    0.3645   -1.9676 H   0  0  0  0  0  0  0  0  0  0  0  0
   -0.3671   -2.4255    0.6838 H   0  0  0  0  0  0  0  0  0  0  0  0
   -0.6847   -2.0135   -0.9832 H   0  0  0  0  0  0  0  0  0  0  0  0
    1.2003    2.8456   -1.8862 H   0  0  0  0  0  0  0  0  0  0  0  0
    2.6096    3.0694   -0.8310 H   0  0  0  0  0  0  0  0  0  0  0  0
   -1.3538   -0.2861    1.5258 H   0  0  0  0  0  0  0  0  0  0  0  0
    0.9698    4.5986   -0.4668 H   0  0  0  0  0  0  0  0  0  0  0  0
   -3.8420    1.5027   -0.1157 H   0  0  0  0  0  0  0  0  0  0  0  0
   -3.4163    0.9367    1.5123 H   0  0  0  0  0  0  0  0  0  0  0  0
   -3.5387   -1.7322   -1.4195 H   0  0  0  0  0  0  0  0  0  0  0  0
   -2.0881   -0.9493   -2.1009 H   0  0  0  0  0  0  0  0  0  0  0  0
   -3.5887   -0.0673   -2.0213 H   0  0  0  0  0  0  0  0  0  0  0  0
   -5.5831    0.5207    0.9752 H   0  0  0  0  0  0  0  0  0  0  0  0
  1  6  1  0  0  0  0
  1 10  1  0  0  0  0
  2 10  2  0  0  0  0
  3 12  1  0  0  0  0
  3 26  1  0  0  0  0
  4 15  1  0  0  0  0
  4 32  1  0  0  0  0
  5  6  1  0  0  0  0
  5  8  1  0  0  0  0
  5  9  1  0  0  0  0
  5 10  1  0  0  0  0
  6  7  1  0  0  0  0
  6 17  1  0  0  0  0
  7 11  1  0  0  0  0
  7 18  1  0  0  0  0
  7 19  1  0  0  0  0
  8 11  2  0  0  0  0
  8 20  1  0  0  0  0
  9 13  1  0  0  0  0
  9 21  1  0  0  0  0
  9 22  1  0  0  0  0
 11 12  1  0  0  0  0
 12 23  1  0  0  0  0
 12 24  1  0  0  0  0
 13 14  2  0  0  0  0
 13 25  1  0  0  0  0
 14 15  1  0  0  0  0
 14 16  1  0  0  0  0
 15 27  1  0  0  0  0
 15 28  1  0  0  0  0
 16 29  1  0  0  0  0
 16 30  1  0  0  0  0
 16 31  1  0  0  0  0
M  END
> <PUBCHEM_COMPOUND_CID>
46898597

> <PUBCHEM_CONFORMER_RMSD>
0.6

> <PUBCHEM_CONFORMER_DIVERSEORDER>
1
14
25
15
32
52
29
2
10
49
22
26
21
42
23
28
27
11
39
37
48
20
7
44
51
46
47
38
3
18
50
4
12
30
16
41
13
9
19
36
43
8
45
31
6
24
5
40
34
35
33
17

> <PUBCHEM_MMFF94_PARTIAL_CHARGES>
20
1 -0.41
10 0.67
11 -0.28
12 0.42
13 -0.29
14 -0.28
15 0.42
16 0.14
2 -0.57
20 0.15
25 0.15
26 0.4
3 -0.68
32 0.4
4 -0.68
5 0.17
6 0.26
7 0.14
8 -0.27
9 0.14

> <PUBCHEM_EFFECTIVE_ROTOR_COUNT>
4.4

> <PUBCHEM_PHARMACOPHORE_FEATURES>
7
1 16 hydrophobe
1 2 acceptor
1 3 acceptor
1 3 donor
1 4 acceptor
1 4 donor
7 1 5 6 7 8 10 11 rings

> <PUBCHEM_HEAVY_ATOM_COUNT>
16

> <PUBCHEM_ATOM_DEF_STEREO_COUNT>
2

> <PUBCHEM_ATOM_UDEF_STEREO_COUNT>
0

> <PUBCHEM_BOND_DEF_STEREO_COUNT>
1

> <PUBCHEM_BOND_UDEF_STEREO_COUNT>
0

> <PUBCHEM_ISOTOPIC_ATOM_COUNT>
0

> <PUBCHEM_COMPONENT_COUNT>
1

> <PUBCHEM_CACTVS_TAUTO_COUNT>
1

> <PUBCHEM_CONFORMER_ID>
02CB9DA500000001

> <PUBCHEM_MMFF94_ENERGY>
23.5081

> <PUBCHEM_FEATURE_SELFOVERLAP>
35.522

> <PUBCHEM_SHAPE_FINGERPRINT>
104564 63 17761213211055760071
12725867 57 18341333293039072766
13134695 92 18189033353032576070
13464514 151 18263660600450382676
14250199 8 18410004468752164799
14344429 50 18113337505046340858
14648413 74 18263935482346371282
15490181 8 18122618624509647926
15775835 57 17845933026191912249
16945 1 17970605580244962808
17041 50 18335421206047333855
1813 80 18055652632844767190
18186145 218 18334571331210151307
20233049 118 17750792151522084871
20339313 130 18337679619915495443
20559304 39 18410578396368012657
20671657 1 18339087102268202741
21041028 32 18336266721667329621
21130352 189 18335975381203195210
21524375 3 17684645820000709820
21639500 275 18192132996923821365
2255824 54 18409449197805207695
23558518 356 18194955464473709459
23598291 2 18202842141373090887
25 1 18189627222640404948
2748010 2 18120352303458813012
31174 14 18113901593677597045
3286 77 17894911815565831659
4175511 71 18338241457477687941
6049 1 17458337538197015167
7364860 26 18337958990384643892
74978 22 18408325505754115835
81228 2 17830730959356750712

> <PUBCHEM_SHAPE_MULTIPOLES>
305.8
5.7
2.88
1.19
8.6
2.38
0.06
-0.53
-0.6
-2.98
0.69
-0.06
-0.09
-0.31

> <PUBCHEM_SHAPE_SELFOVERLAP>
638.273

> <PUBCHEM_SHAPE_VOLUME>
175

> <PUBCHEM_COORDINATE_TYPE>
2
5
10

$$$$
