145955293
  -OEChem-02152210553D

 75 78  0     1  0  0  0  0  0999 V2000
   -1.5567   -5.3818    1.1550 O   0  0  0  0  0  0  0  0  0  0  0  0
   -2.4945   -2.6071   -1.6446 O   0  0  0  0  0  0  0  0  0  0  0  0
   -2.2949   -2.6676    0.6523 O   0  0  0  0  0  0  0  0  0  0  0  0
   -3.0375    0.1670   -2.5410 N   0  0  0  0  0  0  0  0  0  0  0  0
   -3.5739    1.5956   -1.0248 N   0  0  0  0  0  0  0  0  0  0  0  0
   -3.0218    1.4612   -2.2417 N   0  0  0  0  0  0  0  0  0  0  0  0
    3.3785   -0.0835    0.4280 C   0  0  1  0  0  0  0  0  0  0  0  0
    2.5786    0.6350   -0.7251 C   0  0  2  0  0  0  0  0  0  0  0  0
    3.3942    1.6463   -1.6125 C   0  0  0  0  0  0  0  0  0  0  0  0
    2.4863   -1.2315    1.0524 C   0  0  1  0  0  0  0  0  0  0  0  0
    4.6935   -0.6618   -0.1528 C   0  0  0  0  0  0  0  0  0  0  0  0
    1.2273    1.1851   -0.2109 C   0  0  0  0  0  0  0  0  0  0  0  0
    4.7329    0.9972   -2.0485 C   0  0  0  0  0  0  0  0  0  0  0  0
    5.5279    0.3696   -0.9096 C   0  0  0  0  0  0  0  0  0  0  0  0
    3.7504    0.8617    1.6069 C   0  0  0  0  0  0  0  0  0  0  0  0
    0.3733    0.0956    0.4446 C   0  0  0  0  0  0  0  0  0  0  0  0
    1.1406   -0.6709    1.4883 C   0  0  0  0  0  0  0  0  0  0  0  0
    2.6030    1.9491   -2.9137 C   0  0  0  0  0  0  0  0  0  0  0  0
    3.6603    3.0108   -0.9488 C   0  0  0  0  0  0  0  0  0  0  0  0
    2.2572   -2.4618    0.1601 C   0  0  0  0  0  0  0  0  0  0  0  0
    0.6756   -0.8243    2.7380 C   0  0  0  0  0  0  0  0  0  0  0  0
    1.4137   -3.4779    0.8644 C   0  0  0  0  0  0  0  0  0  0  0  0
    0.2031   -3.9136    0.4737 C   0  0  0  0  0  0  0  0  0  0  0  0
   -0.5206   -3.5290   -0.7840 C   0  0  0  0  0  0  0  0  0  0  0  0
   -0.4519   -4.9004    1.3773 C   0  0  0  0  0  0  0  0  0  0  0  0
   -1.8590   -2.8932   -0.4684 C   0  0  0  0  0  0  0  0  0  0  0  0
   -3.7797   -1.9904   -1.5164 C   0  0  0  0  0  0  0  0  0  0  0  0
   -3.6072   -0.5000   -1.4920 C   0  0  0  0  0  0  0  0  0  0  0  0
   -3.9572    0.3947   -0.5122 C   0  0  0  0  0  0  0  0  0  0  0  0
   -3.7065    2.8951   -0.4168 C   0  0  0  0  0  0  0  0  0  0  0  0
   -2.6666    3.1688    0.6414 C   0  0  0  0  0  0  0  0  0  0  0  0
   -2.8015    2.6092    1.9120 C   0  0  0  0  0  0  0  0  0  0  0  0
   -1.5710    3.9814    0.3499 C   0  0  0  0  0  0  0  0  0  0  0  0
   -1.8406    2.8622    2.8910 C   0  0  0  0  0  0  0  0  0  0  0  0
   -0.6102    4.2343    1.3290 C   0  0  0  0  0  0  0  0  0  0  0  0
   -0.7451    3.6748    2.5995 C   0  0  0  0  0  0  0  0  0  0  0  0
    2.3092   -0.1658   -1.4300 H   0  0  0  0  0  0  0  0  0  0  0  0
    3.0196   -1.5982    1.9434 H   0  0  0  0  0  0  0  0  0  0  0  0
    4.4756   -1.4680   -0.8618 H   0  0  0  0  0  0  0  0  0  0  0  0
    5.2993   -1.1053    0.6471 H   0  0  0  0  0  0  0  0  0  0  0  0
    0.6439    1.6098   -1.0343 H   0  0  0  0  0  0  0  0  0  0  0  0
    1.3893    1.9984    0.5036 H   0  0  0  0  0  0  0  0  0  0  0  0
    4.5285    0.2109   -2.7884 H   0  0  0  0  0  0  0  0  0  0  0  0
    5.3637    1.7354   -2.5602 H   0  0  0  0  0  0  0  0  0  0  0  0
    5.9089    1.1428   -0.2359 H   0  0  0  0  0  0  0  0  0  0  0  0
    6.4121   -0.1278   -1.3267 H   0  0  0  0  0  0  0  0  0  0  0  0
    2.8906    1.4107    2.0001 H   0  0  0  0  0  0  0  0  0  0  0  0
    4.5138    1.5943    1.3517 H   0  0  0  0  0  0  0  0  0  0  0  0
    4.1690    0.2856    2.4418 H   0  0  0  0  0  0  0  0  0  0  0  0
    0.0240   -0.5956   -0.3294 H   0  0  0  0  0  0  0  0  0  0  0  0
   -0.5256    0.5554    0.8704 H   0  0  0  0  0  0  0  0  0  0  0  0
    3.2105    2.5316   -3.6167 H   0  0  0  0  0  0  0  0  0  0  0  0
    2.3064    1.0265   -3.4252 H   0  0  0  0  0  0  0  0  0  0  0  0
    1.6972    2.5311   -2.7161 H   0  0  0  0  0  0  0  0  0  0  0  0
    4.3510    2.9553   -0.1094 H   0  0  0  0  0  0  0  0  0  0  0  0
    4.1151    3.7054   -1.6662 H   0  0  0  0  0  0  0  0  0  0  0  0
    2.7357    3.4804   -0.5989 H   0  0  0  0  0  0  0  0  0  0  0  0
    3.2146   -2.9554   -0.0430 H   0  0  0  0  0  0  0  0  0  0  0  0
    1.8570   -2.1797   -0.8140 H   0  0  0  0  0  0  0  0  0  0  0  0
    1.2401   -1.3676    3.4883 H   0  0  0  0  0  0  0  0  0  0  0  0
   -0.2813   -0.4104    3.0379 H   0  0  0  0  0  0  0  0  0  0  0  0
    1.8450   -3.8620    1.7882 H   0  0  0  0  0  0  0  0  0  0  0  0
   -0.7035   -4.4342   -1.3755 H   0  0  0  0  0  0  0  0  0  0  0  0
    0.0397   -2.8315   -1.4086 H   0  0  0  0  0  0  0  0  0  0  0  0
    0.1153   -5.1807    2.2810 H   0  0  0  0  0  0  0  0  0  0  0  0
   -4.3239   -2.3549   -0.6375 H   0  0  0  0  0  0  0  0  0  0  0  0
   -4.3661   -2.2696   -2.3982 H   0  0  0  0  0  0  0  0  0  0  0  0
   -4.4287    0.2820    0.4536 H   0  0  0  0  0  0  0  0  0  0  0  0
   -4.7113    2.9569    0.0192 H   0  0  0  0  0  0  0  0  0  0  0  0
   -3.6681    3.6512   -1.2105 H   0  0  0  0  0  0  0  0  0  0  0  0
   -3.6528    1.9805    2.1573 H   0  0  0  0  0  0  0  0  0  0  0  0
   -1.4519    4.4205   -0.6370 H   0  0  0  0  0  0  0  0  0  0  0  0
   -1.9454    2.4265    3.8803 H   0  0  0  0  0  0  0  0  0  0  0  0
    0.2446    4.8643    1.1011 H   0  0  0  0  0  0  0  0  0  0  0  0
    0.0041    3.8701    3.3611 H   0  0  0  0  0  0  0  0  0  0  0  0
  1 25  2  0  0  0  0
  2 26  1  0  0  0  0
  2 27  1  0  0  0  0
  3 26  2  0  0  0  0
  4  6  2  0  0  0  0
  4 28  1  0  0  0  0
  5  6  1  0  0  0  0
  5 29  1  0  0  0  0
  5 30  1  0  0  0  0
  7  8  1  0  0  0  0
  7 10  1  0  0  0  0
  7 11  1  0  0  0  0
  7 15  1  0  0  0  0
  8  9  1  0  0  0  0
  8 12  1  0  0  0  0
  8 37  1  0  0  0  0
  9 13  1  0  0  0  0
  9 18  1  0  0  0  0
  9 19  1  0  0  0  0
 10 17  1  0  0  0  0
 10 20  1  0  0  0  0
 10 38  1  0  0  0  0
 11 14  1  0  0  0  0
 11 39  1  0  0  0  0
 11 40  1  0  0  0  0
 12 16  1  0  0  0  0
 12 41  1  0  0  0  0
 12 42  1  0  0  0  0
 13 14  1  0  0  0  0
 13 43  1  0  0  0  0
 13 44  1  0  0  0  0
 14 45  1  0  0  0  0
 14 46  1  0  0  0  0
 15 47  1  0  0  0  0
 15 48  1  0  0  0  0
 15 49  1  0  0  0  0
 16 17  1  0  0  0  0
 16 50  1  0  0  0  0
 16 51  1  0  0  0  0
 17 21  2  0  0  0  0
 18 52  1  0  0  0  0
 18 53  1  0  0  0  0
 18 54  1  0  0  0  0
 19 55  1  0  0  0  0
 19 56  1  0  0  0  0
 19 57  1  0  0  0  0
 20 22  1  0  0  0  0
 20 58  1  0  0  0  0
 20 59  1  0  0  0  0
 21 60  1  0  0  0  0
 21 61  1  0  0  0  0
 22 23  2  0  0  0  0
 22 62  1  0  0  0  0
 23 24  1  0  0  0  0
 23 25  1  0  0  0  0
 24 26  1  0  0  0  0
 24 63  1  0  0  0  0
 24 64  1  0  0  0  0
 25 65  1  0  0  0  0
 27 28  1  0  0  0  0
 27 66  1  0  0  0  0
 27 67  1  0  0  0  0
 28 29  2  0  0  0  0
 29 68  1  0  0  0  0
 30 31  1  0  0  0  0
 30 69  1  0  0  0  0
 30 70  1  0  0  0  0
 31 32  2  0  0  0  0
 31 33  1  0  0  0  0
 32 34  1  0  0  0  0
 32 71  1  0  0  0  0
 33 35  2  0  0  0  0
 33 72  1  0  0  0  0
 34 36  2  0  0  0  0
 34 73  1  0  0  0  0
 35 36  1  0  0  0  0
 35 74  1  0  0  0  0
 36 75  1  0  0  0  0
M  END
> <PUBCHEM_COMPOUND_CID>
145955293

> <PUBCHEM_CONFORMER_RMSD>
1.4

> <PUBCHEM_CONFORMER_DIVERSEORDER>
3
125
76
159
119
32
85
4
117
153
55
139
149
157
90
95
108
146
9
148
165
62
94
83
98
141
43
78
167
68
89
164
1
63
2
88
154
140
131
142
73
20
132
143
81
5
155
84
110
19
82
26
105
41
17
67
24
120
112
61
34
136
59
56
50
145
99
36
151
160
163
92
44
97
137
7
130
86
45
66
70
71
51
124
114
72
106
75
91
134
49
57
10
156
168
35
162
111
128
48
87
127
107
133
23
77
47
58
30
166
29
121
79
25
109
37
126
118
28
60
150
38
93
80
21
27
152
161
33
13
101
123
158
74
22
102
104
8
100
46
64
144
115
42
12
116
52
39
69
135
53
147
103
15
113
11
96
122
18
31
138
40
129
6
65
54
14
16

> <PUBCHEM_MMFF94_PARTIAL_CHARGES>
36
1 -0.57
10 0.14
16 0.14
17 -0.28
2 -0.43
20 0.14
21 -0.3
22 -0.29
23 -0.12
24 0.2
25 0.5
26 0.66
27 0.46
28 0.05
29 -0.3
3 -0.57
30 0.4
31 -0.14
32 -0.15
33 -0.15
34 -0.15
35 -0.15
36 -0.15
4 -0.23
5 0.31
6 -0.42
60 0.15
61 0.15
62 0.15
65 0.06
68 0.15
71 0.15
72 0.15
73 0.15
74 0.15
75 0.15

> <PUBCHEM_EFFECTIVE_ROTOR_COUNT>
11.4

> <PUBCHEM_PHARMACOPHORE_FEATURES>
7
1 1 acceptor
1 3 acceptor
3 9 18 19 hydrophobe
5 4 5 6 28 29 rings
6 31 32 33 34 35 36 rings
6 7 8 10 12 16 17 rings
6 7 8 9 11 13 14 rings

> <PUBCHEM_HEAVY_ATOM_COUNT>
36

> <PUBCHEM_ATOM_DEF_STEREO_COUNT>
2

> <PUBCHEM_ATOM_UDEF_STEREO_COUNT>
1

> <PUBCHEM_BOND_DEF_STEREO_COUNT>
1

> <PUBCHEM_BOND_UDEF_STEREO_COUNT>
0

> <PUBCHEM_ISOTOPIC_ATOM_COUNT>
0

> <PUBCHEM_COMPONENT_COUNT>
1

> <PUBCHEM_CACTVS_TAUTO_COUNT>
-1

> <PUBCHEM_CONFORMER_ID>
08B319DD00000003

> <PUBCHEM_MMFF94_ENERGY>
83.7286

> <PUBCHEM_FEATURE_SELFOVERLAP>
35.539

> <PUBCHEM_SHAPE_FINGERPRINT>
11059048 146 18408327674543730686
11285246 1 18200893789705230188
12156800 1 17107314297390866312
12422481 6 15820985143319562963
12788726 201 18342740740689325711
13761468 95 18049752846807798670
14114206 34 18129080287101157805
14117953 113 15461830743599773735
14289585 56 17467928363335659566
14400156 260 16984900850020246657
144659 178 18340472401463167816
15297060 5 18271242724944852200
16067690 210 17989208139960925636
16112460 7 18049997797578263914
161222 10 18341629083158450204
16991981 162 18192450764226659222
18603816 31 16123635850960991708
19319366 153 18267869389443788297
20739085 24 17115505143653090883
20764821 26 18125130953002627745
20775438 99 16759404650840184959
21315764 21 17395823524610295269
21796203 349 16686007305714191562
3493558 16 17756694596872238564
35225 105 17828525575281202117
3534868 343 17765958790138406543
469060 322 16880498131282812145
46939830 39 17684962445480739659
50150288 127 17338208294554650785
5081480 168 17188991540208570895
86090 222 16323441779039652021
9982175 49 17833547895426215730

> <PUBCHEM_SHAPE_MULTIPOLES>
708.31
8.49
6.98
2.74
4.11
5.5
-0.06
-4.72
4.51
-4.29
-3.03
-0.69
-1.49
-3.22

> <PUBCHEM_SHAPE_SELFOVERLAP>
1489.367

> <PUBCHEM_SHAPE_VOLUME>
396

> <PUBCHEM_COORDINATE_TYPE>
2
5
10

$$$$
