10109540
  -OEChem-02152223493D

 48 50  0     0  0  0  0  0  0999 V2000
   -1.4547    2.0892    0.1230 O   0  0  0  0  0  0  0  0  0  0  0  0
    6.7868    0.8617    0.0783 O   0  0  0  0  0  0  0  0  0  0  0  0
    7.9134   -1.1100   -0.0647 O   0  0  0  0  0  0  0  0  0  0  0  0
    5.0745    2.3922    0.1846 O   0  0  0  0  0  0  0  0  0  0  0  0
   -0.8353   -0.1675   -0.0471 N   0  0  0  0  0  0  0  0  0  0  0  0
    4.7395    0.0697    0.0055 N   0  0  0  0  0  0  0  0  0  0  0  0
    5.5547   -1.0205   -0.0729 N   0  0  0  0  0  0  0  0  0  0  0  0
   -7.2918   -0.6073   -0.0103 C   0  0  0  0  0  0  0  0  0  0  0  0
   -5.8072   -0.2068   -0.0004 C   0  0  0  0  0  0  0  0  0  0  0  0
   -7.8281   -0.5777   -1.4580 C   0  0  0  0  0  0  0  0  0  0  0  0
   -8.1032    0.3835    0.8522 C   0  0  0  0  0  0  0  0  0  0  0  0
   -7.5609   -2.0236    0.5470 C   0  0  0  0  0  0  0  0  0  0  0  0
   -5.4643    1.0346   -0.4750 C   0  0  0  0  0  0  0  0  0  0  0  0
   -4.8925   -1.1083    0.4835 C   0  0  0  0  0  0  0  0  0  0  0  0
   -3.1586    0.5090    0.0187 C   0  0  0  0  0  0  0  0  0  0  0  0
   -4.1178    1.3983   -0.4653 C   0  0  0  0  0  0  0  0  0  0  0  0
   -3.5459   -0.7444    0.4932 C   0  0  0  0  0  0  0  0  0  0  0  0
   -1.7546    0.8881    0.0287 C   0  0  0  0  0  0  0  0  0  0  0  0
    0.5799   -0.1070   -0.0338 C   0  0  0  0  0  0  0  0  0  0  0  0
    3.3456    0.0109   -0.0072 C   0  0  0  0  0  0  0  0  0  0  0  0
    1.2033    1.1250    0.0649 C   0  0  0  0  0  0  0  0  0  0  0  0
    1.3075   -1.2817   -0.1194 C   0  0  0  0  0  0  0  0  0  0  0  0
    2.5968    1.1845    0.0782 C   0  0  0  0  0  0  0  0  0  0  0  0
    2.7010   -1.2222   -0.1060 C   0  0  0  0  0  0  0  0  0  0  0  0
    5.4675    1.2392    0.0993 C   0  0  0  0  0  0  0  0  0  0  0  0
    6.7250   -0.4849   -0.0251 C   0  0  0  0  0  0  0  0  0  0  0  0
    7.8193   -2.5241   -0.1719 C   0  0  0  0  0  0  0  0  0  0  0  0
   -8.8749   -0.9016   -1.4975 H   0  0  0  0  0  0  0  0  0  0  0  0
   -7.7893    0.4248   -1.8979 H   0  0  0  0  0  0  0  0  0  0  0  0
   -7.2488   -1.2449   -2.1073 H   0  0  0  0  0  0  0  0  0  0  0  0
   -8.0702    1.4052    0.4583 H   0  0  0  0  0  0  0  0  0  0  0  0
   -9.1598    0.0942    0.8965 H   0  0  0  0  0  0  0  0  0  0  0  0
   -7.7235    0.4145    1.8804 H   0  0  0  0  0  0  0  0  0  0  0  0
   -8.6327   -2.2565    0.5151 H   0  0  0  0  0  0  0  0  0  0  0  0
   -7.0555   -2.7990   -0.0407 H   0  0  0  0  0  0  0  0  0  0  0  0
   -7.2522   -2.1181    1.5948 H   0  0  0  0  0  0  0  0  0  0  0  0
   -6.1925    1.7418   -0.8570 H   0  0  0  0  0  0  0  0  0  0  0  0
   -5.1382   -2.0887    0.8711 H   0  0  0  0  0  0  0  0  0  0  0  0
   -3.8367    2.3775   -0.8443 H   0  0  0  0  0  0  0  0  0  0  0  0
   -2.8408   -1.4544    0.9153 H   0  0  0  0  0  0  0  0  0  0  0  0
   -1.1963   -1.1103   -0.1644 H   0  0  0  0  0  0  0  0  0  0  0  0
    0.6938    2.0744    0.1346 H   0  0  0  0  0  0  0  0  0  0  0  0
    0.8153   -2.2472   -0.1964 H   0  0  0  0  0  0  0  0  0  0  0  0
    2.9973    2.1831    0.1575 H   0  0  0  0  0  0  0  0  0  0  0  0
    3.2577   -2.1530   -0.1740 H   0  0  0  0  0  0  0  0  0  0  0  0
    7.3156   -2.8115   -1.1006 H   0  0  0  0  0  0  0  0  0  0  0  0
    7.3042   -2.9470    0.6969 H   0  0  0  0  0  0  0  0  0  0  0  0
    8.8345   -2.9305   -0.1961 H   0  0  0  0  0  0  0  0  0  0  0  0
  1 18  2  0  0  0  0
  2 25  1  0  0  0  0
  2 26  1  0  0  0  0
  3 26  1  0  0  0  0
  3 27  1  0  0  0  0
  4 25  2  0  0  0  0
  5 18  1  0  0  0  0
  5 19  1  0  0  0  0
  5 41  1  0  0  0  0
  6  7  1  0  0  0  0
  6 20  1  0  0  0  0
  6 25  1  0  0  0  0
  7 26  2  0  0  0  0
  8  9  1  0  0  0  0
  8 10  1  0  0  0  0
  8 11  1  0  0  0  0
  8 12  1  0  0  0  0
  9 13  2  0  0  0  0
  9 14  1  0  0  0  0
 10 28  1  0  0  0  0
 10 29  1  0  0  0  0
 10 30  1  0  0  0  0
 11 31  1  0  0  0  0
 11 32  1  0  0  0  0
 11 33  1  0  0  0  0
 12 34  1  0  0  0  0
 12 35  1  0  0  0  0
 12 36  1  0  0  0  0
 13 16  1  0  0  0  0
 13 37  1  0  0  0  0
 14 17  2  0  0  0  0
 14 38  1  0  0  0  0
 15 16  2  0  0  0  0
 15 17  1  0  0  0  0
 15 18  1  0  0  0  0
 16 39  1  0  0  0  0
 17 40  1  0  0  0  0
 19 21  2  0  0  0  0
 19 22  1  0  0  0  0
 20 23  2  0  0  0  0
 20 24  1  0  0  0  0
 21 23  1  0  0  0  0
 21 42  1  0  0  0  0
 22 24  2  0  0  0  0
 22 43  1  0  0  0  0
 23 44  1  0  0  0  0
 24 45  1  0  0  0  0
 27 46  1  0  0  0  0
 27 47  1  0  0  0  0
 27 48  1  0  0  0  0
M  END
> <PUBCHEM_COMPOUND_CID>
10109540

> <PUBCHEM_CONFORMER_RMSD>
0.8

> <PUBCHEM_CONFORMER_DIVERSEORDER>
1
5
7
2
3
6
4

> <PUBCHEM_MMFF94_PARTIAL_CHARGES>
33
1 -0.57
13 -0.15
14 -0.15
15 0.09
16 -0.15
17 -0.15
18 0.54
19 0.12
2 -0.3
20 0.12
21 -0.15
22 -0.15
23 -0.15
24 -0.15
25 0.78
26 0.75
27 0.28
3 -0.43
37 0.15
38 0.15
39 0.15
4 -0.57
40 0.15
41 0.37
42 0.15
43 0.15
44 0.15
45 0.15
5 -0.55
6 -0.11
7 -0.51
8 0.14
9 -0.14

> <PUBCHEM_EFFECTIVE_ROTOR_COUNT>
6

> <PUBCHEM_PHARMACOPHORE_FEATURES>
7
1 1 acceptor
1 4 acceptor
1 5 donor
4 8 10 11 12 hydrophobe
5 2 6 7 25 26 rings
6 19 20 21 22 23 24 rings
6 9 13 14 15 16 17 rings

> <PUBCHEM_HEAVY_ATOM_COUNT>
27

> <PUBCHEM_ATOM_DEF_STEREO_COUNT>
0

> <PUBCHEM_ATOM_UDEF_STEREO_COUNT>
0

> <PUBCHEM_BOND_DEF_STEREO_COUNT>
0

> <PUBCHEM_BOND_UDEF_STEREO_COUNT>
0

> <PUBCHEM_ISOTOPIC_ATOM_COUNT>
0

> <PUBCHEM_COMPONENT_COUNT>
1

> <PUBCHEM_CACTVS_TAUTO_COUNT>
2

> <PUBCHEM_CONFORMER_ID>
009A426400000001

> <PUBCHEM_MMFF94_ENERGY>
100.815

> <PUBCHEM_FEATURE_SELFOVERLAP>
35.522

> <PUBCHEM_SHAPE_FINGERPRINT>
10 15 18336258046582543360
10050765 1 18122908620558574817
10066227 49 18338797806494279758
10299344 5 18131633391754759581
10968037 39 18334575759627018303
11135926 11 18411129226346192479
11181472 205 13624076561653382495
11315181 36 18410577301963651129
11524674 6 16917067789517885495
11719270 70 18342736304410576286
12166972 35 18260551130286394236
12516196 113 18342457062958979041
13685833 64 18410013247581142385
13692114 37 18113892785032860522
13885169 127 18410293580323619945
14118638 360 16298376921325784601
14251764 18 18273216417584539701
14251764 46 18410855464423135594
14933364 13 18409449193351744456
15183329 4 17821444647072319737
15419008 47 17313375743021354133
15461852 350 14056727850812453195
15716309 27 18273214209849926479
15849732 13 18259703414856724310
18681886 176 18334853943793929064
2026 5 18199469866397581982
20771845 140 16343699894883436022
20771845 171 13840266945440067954
21267235 1 18410577279396836821
21315759 40 17489588965261214458
21315763 28 18411699876505522792
21521721 280 17917710253233574216
21792934 111 18131061628518495728
21792961 116 18341326691716783725
22224240 67 16702018686227133391
23035841 295 17489586775223337711
232437 2 18411700994236301803
23559900 14 18264485264753177849
23569917 315 18341621378256458134
23576562 1 13913188858106064583
249057 3 16008755739931527459
3004659 81 17967811669490780593
3178227 256 17704353277643952346
33532 11 18409446960554533922
335352 9 18410577284820685862
34797466 226 17203334437897263140
3545911 37 18410009935696958061
4073 2 17968100883782274922
4325135 7 18412262839412268631
4339292 15 15338823310725481837
4625314 4 18409445899765742085
5047190 19 16154287138483061419
59682541 35 18131064961555087258
59755656 215 18260830371747865106
59755656 520 17530961414804223355
6081469 158 17822006488892504180
67123 10 18407761443941741436

> <PUBCHEM_SHAPE_MULTIPOLES>
517.23
27.2
1.95
0.76
1.52
0.11
0.09
10.02
0.59
1.88
-0.06
-1.17
0.06
0.64

> <PUBCHEM_SHAPE_SELFOVERLAP>
1121.964

> <PUBCHEM_SHAPE_VOLUME>
284

> <PUBCHEM_COORDINATE_TYPE>
2
5
10

$$$$
