145950231
  -OEChem-02172201053D

 79 82  0     1  0  0  0  0  0999 V2000
   -2.7241   -3.5853    1.9972 Br  0  0  0  0  0  0  0  0  0  0  0  0
    0.8343    5.6568   -1.3758 O   0  0  0  0  0  0  0  0  0  0  0  0
   -0.8589    3.6725    1.7244 O   0  0  0  0  0  0  0  0  0  0  0  0
   -0.8716    3.5086   -0.5760 O   0  0  0  0  0  0  0  0  0  0  0  0
   -2.9575   -1.2819   -3.5888 O   0  0  0  0  0  0  0  0  0  0  0  0
   -2.3731    1.4145    2.9086 N   0  0  0  0  0  0  0  0  0  0  0  0
   -3.5756    0.2363    1.5695 N   0  0  0  0  0  0  0  0  0  0  0  0
   -2.9025    0.2090    2.7312 N   0  0  0  0  0  0  0  0  0  0  0  0
    3.2977   -1.1304   -0.4689 C   0  0  1  0  0  0  0  0  0  0  0  0
    2.3918   -1.3932    0.7944 C   0  0  2  0  0  0  0  0  0  0  0  0
    2.8180   -2.5924    1.7193 C   0  0  0  0  0  0  0  0  0  0  0  0
    2.8811    0.2404   -1.1404 C   0  0  1  0  0  0  0  0  0  0  0  0
    4.7831   -1.0994   -0.0288 C   0  0  0  0  0  0  0  0  0  0  0  0
    0.8908   -1.3797    0.4200 C   0  0  0  0  0  0  0  0  0  0  0  0
    4.3393   -2.5152    2.0076 C   0  0  0  0  0  0  0  0  0  0  0  0
    5.2060   -2.3325    0.7672 C   0  0  0  0  0  0  0  0  0  0  0  0
    3.1485   -2.2144   -1.5754 C   0  0  0  0  0  0  0  0  0  0  0  0
    0.4829   -0.0795   -0.2794 C   0  0  0  0  0  0  0  0  0  0  0  0
    1.3886    0.2468   -1.4364 C   0  0  0  0  0  0  0  0  0  0  0  0
    2.4544   -3.9852    1.1707 C   0  0  0  0  0  0  0  0  0  0  0  0
    2.0995   -2.4705    3.0904 C   0  0  0  0  0  0  0  0  0  0  0  0
    3.2468    1.5096   -0.3545 C   0  0  0  0  0  0  0  0  0  0  0  0
    0.9063    0.4996   -2.6632 C   0  0  0  0  0  0  0  0  0  0  0  0
    2.8145    2.7355   -1.0961 C   0  0  0  0  0  0  0  0  0  0  0  0
    1.9205    3.6463   -0.6724 C   0  0  0  0  0  0  0  0  0  0  0  0
    1.2270    3.6638    0.6588 C   0  0  0  0  0  0  0  0  0  0  0  0
    1.6296    4.7573   -1.6213 C   0  0  0  0  0  0  0  0  0  0  0  0
   -0.2773    3.6058    0.4890 C   0  0  0  0  0  0  0  0  0  0  0  0
   -2.2892    3.6216    1.7356 C   0  0  0  0  0  0  0  0  0  0  0  0
   -2.7274    2.1903    1.8399 C   0  0  0  0  0  0  0  0  0  0  0  0
   -3.4962    1.4564    0.9720 C   0  0  0  0  0  0  0  0  0  0  0  0
   -4.2718   -0.9327    1.0952 C   0  0  0  0  0  0  0  0  0  0  0  0
   -3.5328   -1.6667    0.0038 C   0  0  0  0  0  0  0  0  0  0  0  0
   -3.5799   -1.1440   -1.2885 C   0  0  0  0  0  0  0  0  0  0  0  0
   -2.8169   -2.8366    0.2573 C   0  0  0  0  0  0  0  0  0  0  0  0
   -2.9111   -1.7912   -2.3275 C   0  0  0  0  0  0  0  0  0  0  0  0
   -2.1480   -3.4839   -0.7816 C   0  0  0  0  0  0  0  0  0  0  0  0
   -2.1951   -2.9612   -2.0740 C   0  0  0  0  0  0  0  0  0  0  0  0
   -2.2517   -1.9951   -4.6033 C   0  0  0  0  0  0  0  0  0  0  0  0
    2.5319   -0.5109    1.4369 H   0  0  0  0  0  0  0  0  0  0  0  0
    3.4287    0.3058   -2.0937 H   0  0  0  0  0  0  0  0  0  0  0  0
    4.9727   -0.2329    0.6141 H   0  0  0  0  0  0  0  0  0  0  0  0
    5.4361   -0.9879   -0.9031 H   0  0  0  0  0  0  0  0  0  0  0  0
    0.2686   -1.4809    1.3150 H   0  0  0  0  0  0  0  0  0  0  0  0
    0.6461   -2.2307   -0.2235 H   0  0  0  0  0  0  0  0  0  0  0  0
    4.6698   -3.4132    2.5452 H   0  0  0  0  0  0  0  0  0  0  0  0
    4.5363   -1.6703    2.6821 H   0  0  0  0  0  0  0  0  0  0  0  0
    5.1816   -3.2328    0.1461 H   0  0  0  0  0  0  0  0  0  0  0  0
    6.2505   -2.2111    1.0794 H   0  0  0  0  0  0  0  0  0  0  0  0
    2.1080   -2.3915   -1.8604 H   0  0  0  0  0  0  0  0  0  0  0  0
    3.5780   -3.1762   -1.3014 H   0  0  0  0  0  0  0  0  0  0  0  0
    3.6799   -1.9081   -2.4853 H   0  0  0  0  0  0  0  0  0  0  0  0
    0.5128    0.7391    0.4471 H   0  0  0  0  0  0  0  0  0  0  0  0
   -0.5609   -0.1617   -0.6031 H   0  0  0  0  0  0  0  0  0  0  0  0
    3.0263   -4.2643    0.2876 H   0  0  0  0  0  0  0  0  0  0  0  0
    2.6616   -4.7599    1.9196 H   0  0  0  0  0  0  0  0  0  0  0  0
    1.3904   -4.0611    0.9257 H   0  0  0  0  0  0  0  0  0  0  0  0
    2.2448   -1.4778    3.5310 H   0  0  0  0  0  0  0  0  0  0  0  0
    2.4889   -3.2054    3.8051 H   0  0  0  0  0  0  0  0  0  0  0  0
    1.0226   -2.6472    3.0054 H   0  0  0  0  0  0  0  0  0  0  0  0
    4.3361    1.5851   -0.2591 H   0  0  0  0  0  0  0  0  0  0  0  0
    2.8621    1.4727    0.6650 H   0  0  0  0  0  0  0  0  0  0  0  0
    1.5660    0.7217   -3.4952 H   0  0  0  0  0  0  0  0  0  0  0  0
   -0.1601    0.4903   -2.8624 H   0  0  0  0  0  0  0  0  0  0  0  0
    3.2729    2.8561   -2.0771 H   0  0  0  0  0  0  0  0  0  0  0  0
    1.5201    2.8382    1.3094 H   0  0  0  0  0  0  0  0  0  0  0  0
    1.4768    4.5993    1.1735 H   0  0  0  0  0  0  0  0  0  0  0  0
    2.1726    4.7293   -2.5811 H   0  0  0  0  0  0  0  0  0  0  0  0
   -2.7245    4.1215    0.8626 H   0  0  0  0  0  0  0  0  0  0  0  0
   -2.6291    4.1667    2.6227 H   0  0  0  0  0  0  0  0  0  0  0  0
   -3.9741    1.6934    0.0323 H   0  0  0  0  0  0  0  0  0  0  0  0
   -5.2372   -0.5865    0.7007 H   0  0  0  0  0  0  0  0  0  0  0  0
   -4.5372   -1.5539    1.9547 H   0  0  0  0  0  0  0  0  0  0  0  0
   -4.1422   -0.2388   -1.5027 H   0  0  0  0  0  0  0  0  0  0  0  0
   -1.5833   -4.3953   -0.6017 H   0  0  0  0  0  0  0  0  0  0  0  0
   -1.6516   -3.5133   -2.8331 H   0  0  0  0  0  0  0  0  0  0  0  0
   -2.3963   -1.4498   -5.5417 H   0  0  0  0  0  0  0  0  0  0  0  0
   -1.1743   -2.0126   -4.4067 H   0  0  0  0  0  0  0  0  0  0  0  0
   -2.6636   -2.9993   -4.7501 H   0  0  0  0  0  0  0  0  0  0  0  0
  1 35  1  0  0  0  0
  2 27  2  0  0  0  0
  3 28  1  0  0  0  0
  3 29  1  0  0  0  0
  4 28  2  0  0  0  0
  5 36  1  0  0  0  0
  5 39  1  0  0  0  0
  6  8  2  0  0  0  0
  6 30  1  0  0  0  0
  7  8  1  0  0  0  0
  7 31  1  0  0  0  0
  7 32  1  0  0  0  0
  9 10  1  0  0  0  0
  9 12  1  0  0  0  0
  9 13  1  0  0  0  0
  9 17  1  0  0  0  0
 10 11  1  0  0  0  0
 10 14  1  0  0  0  0
 10 40  1  0  0  0  0
 11 15  1  0  0  0  0
 11 20  1  0  0  0  0
 11 21  1  0  0  0  0
 12 19  1  0  0  0  0
 12 22  1  0  0  0  0
 12 41  1  0  0  0  0
 13 16  1  0  0  0  0
 13 42  1  0  0  0  0
 13 43  1  0  0  0  0
 14 18  1  0  0  0  0
 14 44  1  0  0  0  0
 14 45  1  0  0  0  0
 15 16  1  0  0  0  0
 15 46  1  0  0  0  0
 15 47  1  0  0  0  0
 16 48  1  0  0  0  0
 16 49  1  0  0  0  0
 17 50  1  0  0  0  0
 17 51  1  0  0  0  0
 17 52  1  0  0  0  0
 18 19  1  0  0  0  0
 18 53  1  0  0  0  0
 18 54  1  0  0  0  0
 19 23  2  0  0  0  0
 20 55  1  0  0  0  0
 20 56  1  0  0  0  0
 20 57  1  0  0  0  0
 21 58  1  0  0  0  0
 21 59  1  0  0  0  0
 21 60  1  0  0  0  0
 22 24  1  0  0  0  0
 22 61  1  0  0  0  0
 22 62  1  0  0  0  0
 23 63  1  0  0  0  0
 23 64  1  0  0  0  0
 24 25  2  0  0  0  0
 24 65  1  0  0  0  0
 25 26  1  0  0  0  0
 25 27  1  0  0  0  0
 26 28  1  0  0  0  0
 26 66  1  0  0  0  0
 26 67  1  0  0  0  0
 27 68  1  0  0  0  0
 29 30  1  0  0  0  0
 29 69  1  0  0  0  0
 29 70  1  0  0  0  0
 30 31  2  0  0  0  0
 31 71  1  0  0  0  0
 32 33  1  0  0  0  0
 32 72  1  0  0  0  0
 32 73  1  0  0  0  0
 33 34  1  0  0  0  0
 33 35  2  0  0  0  0
 34 36  2  0  0  0  0
 34 74  1  0  0  0  0
 35 37  1  0  0  0  0
 36 38  1  0  0  0  0
 37 38  2  0  0  0  0
 37 75  1  0  0  0  0
 38 76  1  0  0  0  0
 39 77  1  0  0  0  0
 39 78  1  0  0  0  0
 39 79  1  0  0  0  0
M  END
> <PUBCHEM_COMPOUND_CID>
145950231

> <PUBCHEM_CONFORMER_RMSD>
1.6

> <PUBCHEM_CONFORMER_DIVERSEORDER>
3
99
121
13
186
171
51
127
163
75
144
63
6
92
139
84
128
150
108
136
56
41
1
157
210
16
19
29
104
142
119
182
4
155
34
100
97
192
174
93
17
18
78
36
206
205
46
125
120
107
81
38
122
76
154
77
195
130
153
30
196
31
165
194
37
129
44
113
176
204
148
189
21
169
48
61
160
2
112
145
173
177
87
190
49
71
86
193
25
66
105
164
103
42
170
102
43
118
7
178
98
15
62
73
167
59
152
185
199
156
5
138
168
26
141
124
126
27
207
53
187
20
45
183
82
79
114
40
161
12
166
111
208
68
57
151
33
69
116
179
109
101
197
83
32
85
60
184
117
201
106
143
74
52
133
94
172
47
55
91
202
50
64
90
110
10
198
159
23
28
80
65
96
203
191
200
181
115
58
147
162
188
39
158
140
131
149
67
135
134
22
14
54
11
35
175
95
132
209
137
72
9
88
70
123
8
146
24
89
180

> <PUBCHEM_MMFF94_PARTIAL_CHARGES>
37
1 -0.11
12 0.14
18 0.14
19 -0.28
2 -0.57
22 0.14
23 -0.3
24 -0.29
25 -0.12
26 0.2
27 0.5
28 0.66
29 0.46
3 -0.43
30 0.05
31 -0.3
32 0.4
33 -0.14
34 -0.15
35 0.11
36 0.08
37 -0.15
38 -0.15
39 0.28
4 -0.57
5 -0.36
6 -0.23
63 0.15
64 0.15
65 0.15
68 0.06
7 0.31
71 0.15
74 0.15
75 0.15
76 0.15
8 -0.42

> <PUBCHEM_EFFECTIVE_ROTOR_COUNT>
12.4

> <PUBCHEM_PHARMACOPHORE_FEATURES>
9
1 1 hydrophobe
1 2 acceptor
1 4 acceptor
1 5 acceptor
3 11 20 21 hydrophobe
5 6 7 8 30 31 rings
6 33 34 35 36 37 38 rings
6 9 10 11 13 15 16 rings
6 9 10 12 14 18 19 rings

> <PUBCHEM_HEAVY_ATOM_COUNT>
39

> <PUBCHEM_ATOM_DEF_STEREO_COUNT>
2

> <PUBCHEM_ATOM_UDEF_STEREO_COUNT>
1

> <PUBCHEM_BOND_DEF_STEREO_COUNT>
1

> <PUBCHEM_BOND_UDEF_STEREO_COUNT>
0

> <PUBCHEM_ISOTOPIC_ATOM_COUNT>
0

> <PUBCHEM_COMPONENT_COUNT>
1

> <PUBCHEM_CACTVS_TAUTO_COUNT>
-1

> <PUBCHEM_CONFORMER_ID>
08B3061700000003

> <PUBCHEM_MMFF94_ENERGY>
101.0749

> <PUBCHEM_FEATURE_SELFOVERLAP>
45.689

> <PUBCHEM_SHAPE_FINGERPRINT>
10010297 198 17901120616137023586
10032420 55 17406556287147891737
10462674 125 17340638146790846854
10721379 63 16478772961272628719
10794284 68 18120955927696942222
11093857 51 17200551501084586141
11285246 1 16186081973208794807
12156800 1 16679712739664095953
12160290 23 17982716481528408508
13383668 262 15466854000143254399
14114207 22 15074534502882341617
14117953 113 18124045524784137749
14279260 333 17838083716167422780
14400156 96 10867222812048768740
14674994 50 17914308235503623357
14725015 67 16101381520571645097
14856354 85 18264228927935486742
15297060 5 16412147800182921905
15403338 16 18266190607245471695
16114785 44 17616504304313219890
161222 619 15458730116145842987
19311894 1 18336275552384614162
19315092 285 17978766211160151087
19319366 153 17905914791586478713
2132832 1 18201139044837209007
21795232 338 17543615450080618234
238918 7 16680906641223504107
27425 322 12489017620163014877
35225 105 17557402311483041587
50150288 127 17122599592207109971
66674814 147 17688870156507299424
86090 222 15750333459364913047

> <PUBCHEM_SHAPE_MULTIPOLES>
770.12
8.34
7.16
3.58
0.44
7.63
-2.2
-6
0.91
3.08
1.43
-3.27
-1.51
-4.46

> <PUBCHEM_SHAPE_SELFOVERLAP>
1604.372

> <PUBCHEM_SHAPE_VOLUME>
444.7

> <PUBCHEM_COORDINATE_TYPE>
2
5
10

$$$$
