46898596
  -OEChem-02142210503D

 38 39  0     1  0  0  0  0  0999 V2000
    0.0111   -2.7972   -0.5850 O   0  0  0  0  0  0  0  0  0  0  0  0
    1.4565   -2.6306    1.2211 O   0  0  0  0  0  0  0  0  0  0  0  0
   -3.4985    0.0375    0.8454 O   0  0  0  0  0  0  0  0  0  0  0  0
   -2.9711    1.6462   -0.8014 O   0  0  0  0  0  0  0  0  0  0  0  0
    0.7612   -0.8158   -0.4635 C   0  0  2  0  0  0  0  0  0  0  0  0
   -0.1720   -1.5990   -1.3972 C   0  0  2  0  0  0  0  0  0  0  0  0
   -1.5558   -0.9726   -1.2220 C   0  0  0  0  0  0  0  0  0  0  0  0
   -0.0715    0.1615    0.2512 C   0  0  0  0  0  0  0  0  0  0  0  0
   -1.3429    0.0781   -0.1644 C   0  0  0  0  0  0  0  0  0  0  0  0
    2.0464   -0.2576   -1.0574 C   0  0  0  0  0  0  0  0  0  0  0  0
    0.8754   -2.1720    0.2635 C   0  0  0  0  0  0  0  0  0  0  0  0
   -2.4835    0.8998    0.3207 C   0  0  0  0  0  0  0  0  0  0  0  0
    2.9337    0.2182    0.0554 C   0  0  0  0  0  0  0  0  0  0  0  0
    3.4414    1.4528    0.2331 C   0  0  0  0  0  0  0  0  0  0  0  0
    4.3544    1.7429    1.3945 C   0  0  0  0  0  0  0  0  0  0  0  0
    3.1644    2.6355   -0.6508 C   0  0  0  0  0  0  0  0  0  0  0  0
   -3.2149   -0.4075    2.1659 C   0  0  0  0  0  0  0  0  0  0  0  0
   -3.7344    2.7798   -0.4091 C   0  0  0  0  0  0  0  0  0  0  0  0
    0.1582   -1.7601   -2.4280 H   0  0  0  0  0  0  0  0  0  0  0  0
   -1.8835   -0.5062   -2.1570 H   0  0  0  0  0  0  0  0  0  0  0  0
   -2.2979   -1.7169   -0.9167 H   0  0  0  0  0  0  0  0  0  0  0  0
    0.2796    0.8450    1.0117 H   0  0  0  0  0  0  0  0  0  0  0  0
    1.8158    0.5198   -1.7902 H   0  0  0  0  0  0  0  0  0  0  0  0
    2.5822   -1.0420   -1.6070 H   0  0  0  0  0  0  0  0  0  0  0  0
   -2.1485    1.6030    1.0954 H   0  0  0  0  0  0  0  0  0  0  0  0
    3.2273   -0.5519    0.7676 H   0  0  0  0  0  0  0  0  0  0  0  0
    5.3254    2.0972    1.0331 H   0  0  0  0  0  0  0  0  0  0  0  0
    4.5342    0.8594    2.0161 H   0  0  0  0  0  0  0  0  0  0  0  0
    3.9184    2.5161    2.0356 H   0  0  0  0  0  0  0  0  0  0  0  0
    4.0925    2.9756   -1.1221 H   0  0  0  0  0  0  0  0  0  0  0  0
    2.4443    2.4388   -1.4465 H   0  0  0  0  0  0  0  0  0  0  0  0
    2.7612    3.4611   -0.0543 H   0  0  0  0  0  0  0  0  0  0  0  0
   -2.3038   -1.0122    2.1917 H   0  0  0  0  0  0  0  0  0  0  0  0
   -3.1238    0.4439    2.8473 H   0  0  0  0  0  0  0  0  0  0  0  0
   -4.0489   -1.0300    2.5014 H   0  0  0  0  0  0  0  0  0  0  0  0
   -4.5912    2.4753    0.1993 H   0  0  0  0  0  0  0  0  0  0  0  0
   -3.1101    3.4874    0.1448 H   0  0  0  0  0  0  0  0  0  0  0  0
   -4.1039    3.2743   -1.3114 H   0  0  0  0  0  0  0  0  0  0  0  0
  1  6  1  0  0  0  0
  1 11  1  0  0  0  0
  2 11  2  0  0  0  0
  3 12  1  0  0  0  0
  3 17  1  0  0  0  0
  4 12  1  0  0  0  0
  4 18  1  0  0  0  0
  5  6  1  0  0  0  0
  5  8  1  0  0  0  0
  5 10  1  0  0  0  0
  5 11  1  0  0  0  0
  6  7  1  0  0  0  0
  6 19  1  0  0  0  0
  7  9  1  0  0  0  0
  7 20  1  0  0  0  0
  7 21  1  0  0  0  0
  8  9  2  0  0  0  0
  8 22  1  0  0  0  0
  9 12  1  0  0  0  0
 10 13  1  0  0  0  0
 10 23  1  0  0  0  0
 10 24  1  0  0  0  0
 12 25  1  0  0  0  0
 13 14  2  0  0  0  0
 13 26  1  0  0  0  0
 14 15  1  0  0  0  0
 14 16  1  0  0  0  0
 15 27  1  0  0  0  0
 15 28  1  0  0  0  0
 15 29  1  0  0  0  0
 16 30  1  0  0  0  0
 16 31  1  0  0  0  0
 16 32  1  0  0  0  0
 17 33  1  0  0  0  0
 17 34  1  0  0  0  0
 17 35  1  0  0  0  0
 18 36  1  0  0  0  0
 18 37  1  0  0  0  0
 18 38  1  0  0  0  0
M  END
> <PUBCHEM_COMPOUND_CID>
46898596

> <PUBCHEM_CONFORMER_RMSD>
0.8

> <PUBCHEM_CONFORMER_DIVERSEORDER>
1
12
27
9
21
25
8
15
16
7
23
4
13
5
18
24
19
20
28
26
11
6
22
3
17
2
14
10

> <PUBCHEM_MMFF94_PARTIAL_CHARGES>
20
1 -0.41
10 0.14
11 0.67
12 0.7
13 -0.29
14 -0.28
15 0.14
16 0.14
17 0.28
18 0.28
2 -0.57
22 0.15
26 0.15
3 -0.56
4 -0.56
5 0.17
6 0.26
7 0.14
8 -0.27
9 -0.28

> <PUBCHEM_EFFECTIVE_ROTOR_COUNT>
5.4

> <PUBCHEM_PHARMACOPHORE_FEATURES>
5
1 2 acceptor
1 3 acceptor
1 4 acceptor
3 14 15 16 hydrophobe
7 1 5 6 7 8 9 11 rings

> <PUBCHEM_HEAVY_ATOM_COUNT>
18

> <PUBCHEM_ATOM_DEF_STEREO_COUNT>
2

> <PUBCHEM_ATOM_UDEF_STEREO_COUNT>
0

> <PUBCHEM_BOND_DEF_STEREO_COUNT>
0

> <PUBCHEM_BOND_UDEF_STEREO_COUNT>
0

> <PUBCHEM_ISOTOPIC_ATOM_COUNT>
0

> <PUBCHEM_COMPONENT_COUNT>
1

> <PUBCHEM_CACTVS_TAUTO_COUNT>
1

> <PUBCHEM_CONFORMER_ID>
02CB9DA400000001

> <PUBCHEM_MMFF94_ENERGY>
33.2576

> <PUBCHEM_FEATURE_SELFOVERLAP>
25.411

> <PUBCHEM_SHAPE_FINGERPRINT>
10291535 26 16414644916081204392
11543360 7 13542459899507545488
12491281 212 17131847498408708730
12633257 1 16587742018899420956
12892183 10 17530963635344194912
13134695 92 17688583871013788390
13544653 18 11963388561631447044
13583140 156 18186801340201691225
14026960 21 18262530306549506885
14123255 52 18341324544011641500
14178342 30 17241059716748181819
14289901 80 17677635127771852907
14787075 74 18126858328735464859
15295992 7 17612327255645590137
15534591 1 18130223873508744838
16945 1 18041858305864807663
1741750 31 17845939657737448650
17980427 23 17338983153867139512
18186145 218 18059587883686393476
18219364 16 18343025497089934241
19765921 60 18272363191839105050
20645477 56 18058454377624720872
20681677 76 18262803960812361877
20871999 31 11527953373661137113
21069387 34 13046514236475276649
21401589 2 17915455202303836560
21524375 3 18271526502234750430
21731228 192 18410294756806763186
21756936 100 18044665424007948212
21864079 5 18262520437110637788
22182937 141 17772757310301241112
23419403 2 16833541210611833798
23532345 11 17095824122144712441
23557571 272 17824285751370820253
23558518 356 18337101393238597878
23559900 14 17678470662230724647
305870 269 18336538348573778190
474 4 18335134289241849916
49207404 50 18187939390439262504
495365 180 18194391200454707789
633830 44 17274279256857307857
7364860 26 18124594180695702662
81228 2 17692809702358244522

> <PUBCHEM_SHAPE_MULTIPOLES>
346.95
6.9
3.1
1.46
1.36
0.05
-0.51
-6.77
-2.18
0.24
0.33
-0.53
0.25
0.5

> <PUBCHEM_SHAPE_SELFOVERLAP>
715.099

> <PUBCHEM_SHAPE_VOLUME>
202.1

> <PUBCHEM_COORDINATE_TYPE>
2
5
10

$$$$
