145958385
  -OEChem-02152210433D

 77 80  0     1  0  0  0  0  0999 V2000
   -6.4912   -1.2367   -1.1665 O   0  0  0  0  0  0  0  0  0  0  0  0
   -2.8713   -2.8638    1.3931 O   0  0  0  0  0  0  0  0  0  0  0  0
   -3.5914   -3.0783   -0.7873 O   0  0  0  0  0  0  0  0  0  0  0  0
    2.1314   -1.6249   -1.5035 O   0  0  0  0  0  0  0  0  0  0  0  0
   -0.3446   -4.4424   -0.3578 N   0  0  0  0  0  0  0  0  0  0  0  0
    1.2434   -3.2806    0.5115 N   0  0  0  0  0  0  0  0  0  0  0  0
    0.9161   -4.0611   -0.5312 N   0  0  0  0  0  0  0  0  0  0  0  0
   -0.7820    2.4577    0.9873 C   0  0  1  0  0  0  0  0  0  0  0  0
    0.1591    3.1180   -0.0916 C   0  0  2  0  0  0  0  0  0  0  0  0
    1.6465    3.3803    0.3492 C   0  0  0  0  0  0  0  0  0  0  0  0
   -2.1502    2.0421    0.3099 C   0  0  1  0  0  0  0  0  0  0  0  0
   -0.0690    1.2221    1.5925 C   0  0  0  0  0  0  0  0  0  0  0  0
   -0.5273    4.3278   -0.7686 C   0  0  0  0  0  0  0  0  0  0  0  0
    2.2204    2.1127    1.0327 C   0  0  0  0  0  0  0  0  0  0  0  0
    1.3301    1.5283    2.1231 C   0  0  0  0  0  0  0  0  0  0  0  0
   -1.1539    3.4160    2.1557 C   0  0  0  0  0  0  0  0  0  0  0  0
   -1.8792    3.9534   -1.3838 C   0  0  0  0  0  0  0  0  0  0  0  0
   -2.7670    3.2372   -0.4017 C   0  0  0  0  0  0  0  0  0  0  0  0
    1.8372    4.6055    1.2633 C   0  0  0  0  0  0  0  0  0  0  0  0
    2.5209    3.6420   -0.9069 C   0  0  0  0  0  0  0  0  0  0  0  0
   -2.0823    0.8537   -0.6624 C   0  0  0  0  0  0  0  0  0  0  0  0
   -4.0193    3.6488   -0.1491 C   0  0  0  0  0  0  0  0  0  0  0  0
   -3.4358    0.5505   -1.2245 C   0  0  0  0  0  0  0  0  0  0  0  0
   -4.3268   -0.3229   -0.7230 C   0  0  0  0  0  0  0  0  0  0  0  0
   -4.1815   -1.1189    0.5414 C   0  0  0  0  0  0  0  0  0  0  0  0
   -5.5900   -0.4752   -1.4977 C   0  0  0  0  0  0  0  0  0  0  0  0
   -3.5347   -2.4612    0.2675 C   0  0  0  0  0  0  0  0  0  0  0  0
   -2.1953   -4.1214    1.2933 C   0  0  0  0  0  0  0  0  0  0  0  0
   -0.7950   -3.8873    0.8077 C   0  0  0  0  0  0  0  0  0  0  0  0
    0.2045   -3.1407    1.3793 C   0  0  0  0  0  0  0  0  0  0  0  0
    2.5588   -2.7011    0.6122 C   0  0  0  0  0  0  0  0  0  0  0  0
    2.9134   -1.8220   -0.5757 C   0  0  0  0  0  0  0  0  0  0  0  0
    4.2595   -1.1775   -0.6128 C   0  0  0  0  0  0  0  0  0  0  0  0
    5.1625   -1.3877    0.4295 C   0  0  0  0  0  0  0  0  0  0  0  0
    4.6147   -0.3661   -1.6903 C   0  0  0  0  0  0  0  0  0  0  0  0
    6.4206   -0.7864    0.3941 C   0  0  0  0  0  0  0  0  0  0  0  0
    5.8728    0.2352   -1.7256 C   0  0  0  0  0  0  0  0  0  0  0  0
    6.7758    0.0250   -0.6834 C   0  0  0  0  0  0  0  0  0  0  0  0
    0.2543    2.3628   -0.8868 H   0  0  0  0  0  0  0  0  0  0  0  0
   -2.8234    1.7352    1.1247 H   0  0  0  0  0  0  0  0  0  0  0  0
    0.0534    0.4406    0.8348 H   0  0  0  0  0  0  0  0  0  0  0  0
   -0.6774    0.7862    2.3945 H   0  0  0  0  0  0  0  0  0  0  0  0
    0.1002    4.7267   -1.5720 H   0  0  0  0  0  0  0  0  0  0  0  0
   -0.6675    5.1459   -0.0540 H   0  0  0  0  0  0  0  0  0  0  0  0
    2.3741    1.3340    0.2733 H   0  0  0  0  0  0  0  0  0  0  0  0
    3.2119    2.3228    1.4539 H   0  0  0  0  0  0  0  0  0  0  0  0
    1.2892    2.1991    2.9863 H   0  0  0  0  0  0  0  0  0  0  0  0
    1.7815    0.5969    2.4867 H   0  0  0  0  0  0  0  0  0  0  0  0
   -1.5530    4.3734    1.8105 H   0  0  0  0  0  0  0  0  0  0  0  0
   -0.3203    3.6328    2.8211 H   0  0  0  0  0  0  0  0  0  0  0  0
   -1.9229    2.9616    2.7933 H   0  0  0  0  0  0  0  0  0  0  0  0
   -1.7160    3.3087   -2.2559 H   0  0  0  0  0  0  0  0  0  0  0  0
   -2.3592    4.8644   -1.7617 H   0  0  0  0  0  0  0  0  0  0  0  0
    1.4121    5.5125    0.8227 H   0  0  0  0  0  0  0  0  0  0  0  0
    1.4064    4.4759    2.2545 H   0  0  0  0  0  0  0  0  0  0  0  0
    2.9046    4.8030    1.4239 H   0  0  0  0  0  0  0  0  0  0  0  0
    3.5851    3.6790   -0.6442 H   0  0  0  0  0  0  0  0  0  0  0  0
    2.3972    2.8482   -1.6522 H   0  0  0  0  0  0  0  0  0  0  0  0
    2.2764    4.5955   -1.3854 H   0  0  0  0  0  0  0  0  0  0  0  0
   -1.7054   -0.0405   -0.1565 H   0  0  0  0  0  0  0  0  0  0  0  0
   -1.3942    1.0366   -1.4948 H   0  0  0  0  0  0  0  0  0  0  0  0
   -4.6487    3.1346    0.5695 H   0  0  0  0  0  0  0  0  0  0  0  0
   -4.4434    4.5092   -0.6557 H   0  0  0  0  0  0  0  0  0  0  0  0
   -3.6703    1.0769   -2.1490 H   0  0  0  0  0  0  0  0  0  0  0  0
   -3.5660   -0.5666    1.2605 H   0  0  0  0  0  0  0  0  0  0  0  0
   -5.1500   -1.2916    1.0225 H   0  0  0  0  0  0  0  0  0  0  0  0
   -5.6774    0.1419   -2.4080 H   0  0  0  0  0  0  0  0  0  0  0  0
   -2.7338   -4.8275    0.6508 H   0  0  0  0  0  0  0  0  0  0  0  0
   -2.1636   -4.5583    2.2972 H   0  0  0  0  0  0  0  0  0  0  0  0
    0.2605   -2.5490    2.2821 H   0  0  0  0  0  0  0  0  0  0  0  0
    2.5875   -2.1027    1.5286 H   0  0  0  0  0  0  0  0  0  0  0  0
    3.2609   -3.5383    0.6819 H   0  0  0  0  0  0  0  0  0  0  0  0
    4.9280   -2.0101    1.2869 H   0  0  0  0  0  0  0  0  0  0  0  0
    3.9284   -0.1860   -2.5133 H   0  0  0  0  0  0  0  0  0  0  0  0
    7.1240   -0.9493    1.2054 H   0  0  0  0  0  0  0  0  0  0  0  0
    6.1493    0.8677   -2.5641 H   0  0  0  0  0  0  0  0  0  0  0  0
    7.7552    0.4935   -0.7108 H   0  0  0  0  0  0  0  0  0  0  0  0
  1 26  2  0  0  0  0
  2 27  1  0  0  0  0
  2 28  1  0  0  0  0
  3 27  2  0  0  0  0
  4 32  2  0  0  0  0
  5  7  2  0  0  0  0
  5 29  1  0  0  0  0
  6  7  1  0  0  0  0
  6 30  1  0  0  0  0
  6 31  1  0  0  0  0
  8  9  1  0  0  0  0
  8 11  1  0  0  0  0
  8 12  1  0  0  0  0
  8 16  1  0  0  0  0
  9 10  1  0  0  0  0
  9 13  1  0  0  0  0
  9 39  1  0  0  0  0
 10 14  1  0  0  0  0
 10 19  1  0  0  0  0
 10 20  1  0  0  0  0
 11 18  1  0  0  0  0
 11 21  1  0  0  0  0
 11 40  1  0  0  0  0
 12 15  1  0  0  0  0
 12 41  1  0  0  0  0
 12 42  1  0  0  0  0
 13 17  1  0  0  0  0
 13 43  1  0  0  0  0
 13 44  1  0  0  0  0
 14 15  1  0  0  0  0
 14 45  1  0  0  0  0
 14 46  1  0  0  0  0
 15 47  1  0  0  0  0
 15 48  1  0  0  0  0
 16 49  1  0  0  0  0
 16 50  1  0  0  0  0
 16 51  1  0  0  0  0
 17 18  1  0  0  0  0
 17 52  1  0  0  0  0
 17 53  1  0  0  0  0
 18 22  2  0  0  0  0
 19 54  1  0  0  0  0
 19 55  1  0  0  0  0
 19 56  1  0  0  0  0
 20 57  1  0  0  0  0
 20 58  1  0  0  0  0
 20 59  1  0  0  0  0
 21 23  1  0  0  0  0
 21 60  1  0  0  0  0
 21 61  1  0  0  0  0
 22 62  1  0  0  0  0
 22 63  1  0  0  0  0
 23 24  2  0  0  0  0
 23 64  1  0  0  0  0
 24 25  1  0  0  0  0
 24 26  1  0  0  0  0
 25 27  1  0  0  0  0
 25 65  1  0  0  0  0
 25 66  1  0  0  0  0
 26 67  1  0  0  0  0
 28 29  1  0  0  0  0
 28 68  1  0  0  0  0
 28 69  1  0  0  0  0
 29 30  2  0  0  0  0
 30 70  1  0  0  0  0
 31 32  1  0  0  0  0
 31 71  1  0  0  0  0
 31 72  1  0  0  0  0
 32 33  1  0  0  0  0
 33 34  2  0  0  0  0
 33 35  1  0  0  0  0
 34 36  1  0  0  0  0
 34 73  1  0  0  0  0
 35 37  2  0  0  0  0
 35 74  1  0  0  0  0
 36 38  2  0  0  0  0
 36 75  1  0  0  0  0
 37 38  1  0  0  0  0
 37 76  1  0  0  0  0
 38 77  1  0  0  0  0
M  END
> <PUBCHEM_COMPOUND_CID>
145958385

> <PUBCHEM_CONFORMER_RMSD>
1.6

> <PUBCHEM_CONFORMER_DIVERSEORDER>
1
78
75
108
24
17
6
69
99
131
42
116
127
13
22
4
106
62
70
14
121
32
20
125
114
110
123
57
60
53
119
89
29
39
28
47
54
18
103
76
135
58
51
115
33
67
134
43
25
92
49
120
100
5
130
38
136
41
59
23
46
2
126
8
27
112
128
66
52
122
36
91
117
50
132
30
56
93
95
34
107
19
84
94
65
68
97
37
9
48
85
105
10
74
86
73
72
16
82
96
44
26
124
31
87
83
63
21
35
118
113
15
80
98
12
79
45
61
40
133
129
77
81
90
3
64
88
111
55
101
102
71
109
11
7
104

> <PUBCHEM_MMFF94_PARTIAL_CHARGES>
38
1 -0.57
11 0.14
17 0.14
18 -0.28
2 -0.43
21 0.14
22 -0.3
23 -0.29
24 -0.12
25 0.2
26 0.5
27 0.66
28 0.46
29 0.05
3 -0.57
30 -0.3
31 0.32
32 0.42
33 0.09
34 -0.15
35 -0.15
36 -0.15
37 -0.15
38 -0.15
4 -0.57
5 -0.23
6 0.31
62 0.15
63 0.15
64 0.15
67 0.06
7 -0.42
70 0.15
73 0.15
74 0.15
75 0.15
76 0.15
77 0.15

> <PUBCHEM_EFFECTIVE_ROTOR_COUNT>
12.4

> <PUBCHEM_PHARMACOPHORE_FEATURES>
8
1 1 acceptor
1 3 acceptor
1 4 acceptor
3 10 19 20 hydrophobe
5 5 6 7 29 30 rings
6 33 34 35 36 37 38 rings
6 8 9 10 12 14 15 rings
6 8 9 11 13 17 18 rings

> <PUBCHEM_HEAVY_ATOM_COUNT>
38

> <PUBCHEM_ATOM_DEF_STEREO_COUNT>
2

> <PUBCHEM_ATOM_UDEF_STEREO_COUNT>
1

> <PUBCHEM_BOND_DEF_STEREO_COUNT>
1

> <PUBCHEM_BOND_UDEF_STEREO_COUNT>
0

> <PUBCHEM_ISOTOPIC_ATOM_COUNT>
0

> <PUBCHEM_COMPONENT_COUNT>
1

> <PUBCHEM_CACTVS_TAUTO_COUNT>
-1

> <PUBCHEM_CONFORMER_ID>
08B325F100000001

> <PUBCHEM_MMFF94_ENERGY>
89.9452

> <PUBCHEM_FEATURE_SELFOVERLAP>
40.612

> <PUBCHEM_SHAPE_FINGERPRINT>
10032420 55 18338502046075885188
10439779 11 18335970991847300450
10483366 6 18408601470261067763
10653451 467 18128241480499770072
11146851 88 18408321107939622710
11513181 2 17693367159001424575
11828042 226 18264771142361601727
12156800 1 18264747944762825010
12355185 1 18200305640888202215
12788726 201 18338795620139472931
13347071 3 18193565695430658228
13402501 40 18339639039920644091
14279260 333 18197776605990994574
14647877 51 18124316257915161624
14725015 67 18410564111106456291
14931854 50 18338230475484053271
150020 26 17621321668191295234
15219648 78 17900245700464093797
15274700 208 16484712454925775424
15320467 1 18409448094056381654
15326923 133 18056762259494883008
15351339 4 18263916657963668443
15406563 228 18114471123690241644
15484559 13 16754022412688506469
15538507 32 18339923826543480228
15975801 100 17241306033011915918
161222 10 18052567403332915156
161222 619 17414680402619401360
18738133 556 17169564114580338900
19311894 1 16539897565207887799
19319366 153 17976819783367515567
20764821 26 18337957920821930962
20775530 9 18200579350733131965
21344244 246 17621028094962839415
238918 7 17478322501739938720
3493558 16 17896333587164113086
354706 132 18262811653378449268
354706 35 17832401134435448805
4066623 53 18267297827637917854
4112364 45 12472521703463227367
463206 1 18339368457176168276
469060 322 18264513735357738051
4756261 7 17837806364485813169
6036956 94 18187096078000827109
86090 222 18058428994283398352

> <PUBCHEM_SHAPE_MULTIPOLES>
743.6
11.89
7.78
1.73
9.19
0.02
0.27
-4.43
-5.95
-3.61
1.64
0.11
0.53
0.56

> <PUBCHEM_SHAPE_SELFOVERLAP>
1564.008

> <PUBCHEM_SHAPE_VOLUME>
415.3

> <PUBCHEM_COORDINATE_TYPE>
2
5
10

$$$$
