145949153
  -OEChem-02162200303D

 85 89  0     1  0  0  0  0  0999 V2000
   -4.9471   -4.5921   -0.9650 O   0  0  0  0  0  0  0  0  0  0  0  0
   -0.7837   -2.9477    0.6250 O   0  0  0  0  0  0  0  0  0  0  0  0
   -2.8987   -3.3189    1.4666 O   0  0  0  0  0  0  0  0  0  0  0  0
    0.9384   -0.9303    2.6637 N   0  0  0  0  0  0  0  0  0  0  0  0
    2.9222   -1.2516    1.8963 N   0  0  0  0  0  0  0  0  0  0  0  0
    2.1488   -0.3897    2.5765 N   0  0  0  0  0  0  0  0  0  0  0  0
   -1.9109    1.7607    0.1781 C   0  0  1  0  0  0  0  0  0  0  0  0
   -2.5686    3.0511   -0.4448 C   0  0  2  0  0  0  0  0  0  0  0  0
   -1.6090    4.2744   -0.6856 C   0  0  0  0  0  0  0  0  0  0  0  0
   -2.9438    0.5634    0.1227 C   0  0  1  0  0  0  0  0  0  0  0  0
   -0.6245    1.4158   -0.6140 C   0  0  0  0  0  0  0  0  0  0  0  0
   -3.8897    3.4100    0.2755 C   0  0  0  0  0  0  0  0  0  0  0  0
   -0.3146    3.7928   -1.3896 C   0  0  0  0  0  0  0  0  0  0  0  0
    0.3479    2.5876   -0.7322 C   0  0  0  0  0  0  0  0  0  0  0  0
   -1.5218    1.9244    1.6759 C   0  0  0  0  0  0  0  0  0  0  0  0
   -4.8810    2.2423    0.2770 C   0  0  0  0  0  0  0  0  0  0  0  0
   -4.2537    0.9703    0.7813 C   0  0  0  0  0  0  0  0  0  0  0  0
   -2.2888    5.2848   -1.6489 C   0  0  0  0  0  0  0  0  0  0  0  0
   -1.2545    5.0702    0.5848 C   0  0  0  0  0  0  0  0  0  0  0  0
   -3.2353   -0.0056   -1.2750 C   0  0  0  0  0  0  0  0  0  0  0  0
   -4.8050    0.2548    1.7740 C   0  0  0  0  0  0  0  0  0  0  0  0
   -4.2121   -1.1366   -1.1940 C   0  0  0  0  0  0  0  0  0  0  0  0
   -3.9087   -2.4413   -1.0767 C   0  0  0  0  0  0  0  0  0  0  0  0
   -2.5350   -3.0282   -0.9285 C   0  0  0  0  0  0  0  0  0  0  0  0
   -5.0682   -3.3764   -1.0613 C   0  0  0  0  0  0  0  0  0  0  0  0
   -2.1368   -3.1189    0.5304 C   0  0  0  0  0  0  0  0  0  0  0  0
   -0.2454   -3.0142    1.9495 C   0  0  0  0  0  0  0  0  0  0  0  0
    0.9717   -2.1401    2.0275 C   0  0  0  0  0  0  0  0  0  0  0  0
    2.2306   -2.3648    1.5298 C   0  0  0  0  0  0  0  0  0  0  0  0
    4.3072   -0.9504    1.6372 C   0  0  0  0  0  0  0  0  0  0  0  0
    4.5077    0.3456    0.8914 C   0  0  0  0  0  0  0  0  0  0  0  0
    4.2939    0.4359   -0.4840 C   0  0  0  0  0  0  0  0  0  0  0  0
    4.9167    1.4696    1.6089 C   0  0  0  0  0  0  0  0  0  0  0  0
    3.8682   -0.7171   -1.2523 C   0  0  0  0  0  0  0  0  0  0  0  0
    4.4892    1.6501   -1.1419 C   0  0  0  0  0  0  0  0  0  0  0  0
    5.1119    2.6840    0.9510 C   0  0  0  0  0  0  0  0  0  0  0  0
    4.8982    2.7743   -0.4244 C   0  0  0  0  0  0  0  0  0  0  0  0
    4.8182   -1.5654   -1.8210 C   0  0  0  0  0  0  0  0  0  0  0  0
    2.5087   -0.9776   -1.4241 C   0  0  0  0  0  0  0  0  0  0  0  0
    4.4088   -2.6741   -2.5616 C   0  0  0  0  0  0  0  0  0  0  0  0
    2.0993   -2.0865   -2.1646 C   0  0  0  0  0  0  0  0  0  0  0  0
    3.0493   -2.9347   -2.7334 C   0  0  0  0  0  0  0  0  0  0  0  0
   -2.8700    2.7546   -1.4612 H   0  0  0  0  0  0  0  0  0  0  0  0
   -2.5000   -0.2587    0.7032 H   0  0  0  0  0  0  0  0  0  0  0  0
   -0.1209    0.5646   -0.1426 H   0  0  0  0  0  0  0  0  0  0  0  0
   -0.8689    1.1115   -1.6368 H   0  0  0  0  0  0  0  0  0  0  0  0
   -4.3794    4.2560   -0.2174 H   0  0  0  0  0  0  0  0  0  0  0  0
   -3.6980    3.7253    1.3067 H   0  0  0  0  0  0  0  0  0  0  0  0
    0.4133    4.6122   -1.4485 H   0  0  0  0  0  0  0  0  0  0  0  0
   -0.5482    3.5219   -2.4287 H   0  0  0  0  0  0  0  0  0  0  0  0
    0.7616    2.8602    0.2432 H   0  0  0  0  0  0  0  0  0  0  0  0
    1.2033    2.2774   -1.3444 H   0  0  0  0  0  0  0  0  0  0  0  0
   -2.3439    2.2999    2.2908 H   0  0  0  0  0  0  0  0  0  0  0  0
   -0.6704    2.5841    1.8336 H   0  0  0  0  0  0  0  0  0  0  0  0
   -1.2229    0.9585    2.1015 H   0  0  0  0  0  0  0  0  0  0  0  0
   -5.2529    2.0794   -0.7419 H   0  0  0  0  0  0  0  0  0  0  0  0
   -5.7534    2.5210    0.8805 H   0  0  0  0  0  0  0  0  0  0  0  0
   -1.5874    6.0714   -1.9521 H   0  0  0  0  0  0  0  0  0  0  0  0
   -2.6407    4.7917   -2.5620 H   0  0  0  0  0  0  0  0  0  0  0  0
   -3.1450    5.7827   -1.1830 H   0  0  0  0  0  0  0  0  0  0  0  0
   -0.6886    5.9743    0.3273 H   0  0  0  0  0  0  0  0  0  0  0  0
   -0.6284    4.5147    1.2809 H   0  0  0  0  0  0  0  0  0  0  0  0
   -2.1493    5.4008    1.1210 H   0  0  0  0  0  0  0  0  0  0  0  0
   -2.3174   -0.3567   -1.7524 H   0  0  0  0  0  0  0  0  0  0  0  0
   -3.6447    0.7531   -1.9512 H   0  0  0  0  0  0  0  0  0  0  0  0
   -5.7340    0.5619    2.2423 H   0  0  0  0  0  0  0  0  0  0  0  0
   -4.3397   -0.6540    2.1408 H   0  0  0  0  0  0  0  0  0  0  0  0
   -5.2567   -0.8399   -1.2807 H   0  0  0  0  0  0  0  0  0  0  0  0
   -2.4788   -4.0327   -1.3619 H   0  0  0  0  0  0  0  0  0  0  0  0
   -1.8000   -2.4212   -1.4673 H   0  0  0  0  0  0  0  0  0  0  0  0
   -6.0657   -2.9127   -1.1457 H   0  0  0  0  0  0  0  0  0  0  0  0
    0.0293   -4.0531    2.1612 H   0  0  0  0  0  0  0  0  0  0  0  0
   -0.9684   -2.6791    2.7023 H   0  0  0  0  0  0  0  0  0  0  0  0
    2.6717   -3.1843    0.9802 H   0  0  0  0  0  0  0  0  0  0  0  0
    4.7623   -1.7919    1.1033 H   0  0  0  0  0  0  0  0  0  0  0  0
    4.8052   -0.9170    2.6148 H   0  0  0  0  0  0  0  0  0  0  0  0
    5.0858    1.4170    2.6812 H   0  0  0  0  0  0  0  0  0  0  0  0
    4.3262    1.7399   -2.2134 H   0  0  0  0  0  0  0  0  0  0  0  0
    5.4295    3.5595    1.5097 H   0  0  0  0  0  0  0  0  0  0  0  0
    5.0493    3.7201   -0.9364 H   0  0  0  0  0  0  0  0  0  0  0  0
    5.8819   -1.3769   -1.6964 H   0  0  0  0  0  0  0  0  0  0  0  0
    1.7586   -0.3251   -0.9913 H   0  0  0  0  0  0  0  0  0  0  0  0
    5.1484   -3.3349   -3.0042 H   0  0  0  0  0  0  0  0  0  0  0  0
    1.0405   -2.2892   -2.2973 H   0  0  0  0  0  0  0  0  0  0  0  0
    2.7304   -3.7983   -3.3096 H   0  0  0  0  0  0  0  0  0  0  0  0
  1 25  2  0  0  0  0
  2 26  1  0  0  0  0
  2 27  1  0  0  0  0
  3 26  2  0  0  0  0
  4  6  2  0  0  0  0
  4 28  1  0  0  0  0
  5  6  1  0  0  0  0
  5 29  1  0  0  0  0
  5 30  1  0  0  0  0
  7  8  1  0  0  0  0
  7 10  1  0  0  0  0
  7 11  1  0  0  0  0
  7 15  1  0  0  0  0
  8  9  1  0  0  0  0
  8 12  1  0  0  0  0
  8 43  1  0  0  0  0
  9 13  1  0  0  0  0
  9 18  1  0  0  0  0
  9 19  1  0  0  0  0
 10 17  1  0  0  0  0
 10 20  1  0  0  0  0
 10 44  1  0  0  0  0
 11 14  1  0  0  0  0
 11 45  1  0  0  0  0
 11 46  1  0  0  0  0
 12 16  1  0  0  0  0
 12 47  1  0  0  0  0
 12 48  1  0  0  0  0
 13 14  1  0  0  0  0
 13 49  1  0  0  0  0
 13 50  1  0  0  0  0
 14 51  1  0  0  0  0
 14 52  1  0  0  0  0
 15 53  1  0  0  0  0
 15 54  1  0  0  0  0
 15 55  1  0  0  0  0
 16 17  1  0  0  0  0
 16 56  1  0  0  0  0
 16 57  1  0  0  0  0
 17 21  2  0  0  0  0
 18 58  1  0  0  0  0
 18 59  1  0  0  0  0
 18 60  1  0  0  0  0
 19 61  1  0  0  0  0
 19 62  1  0  0  0  0
 19 63  1  0  0  0  0
 20 22  1  0  0  0  0
 20 64  1  0  0  0  0
 20 65  1  0  0  0  0
 21 66  1  0  0  0  0
 21 67  1  0  0  0  0
 22 23  2  0  0  0  0
 22 68  1  0  0  0  0
 23 24  1  0  0  0  0
 23 25  1  0  0  0  0
 24 26  1  0  0  0  0
 24 69  1  0  0  0  0
 24 70  1  0  0  0  0
 25 71  1  0  0  0  0
 27 28  1  0  0  0  0
 27 72  1  0  0  0  0
 27 73  1  0  0  0  0
 28 29  2  0  0  0  0
 29 74  1  0  0  0  0
 30 31  1  0  0  0  0
 30 75  1  0  0  0  0
 30 76  1  0  0  0  0
 31 32  1  0  0  0  0
 31 33  2  0  0  0  0
 32 34  1  0  0  0  0
 32 35  2  0  0  0  0
 33 36  1  0  0  0  0
 33 77  1  0  0  0  0
 34 38  2  0  0  0  0
 34 39  1  0  0  0  0
 35 37  1  0  0  0  0
 35 78  1  0  0  0  0
 36 37  2  0  0  0  0
 36 79  1  0  0  0  0
 37 80  1  0  0  0  0
 38 40  1  0  0  0  0
 38 81  1  0  0  0  0
 39 41  2  0  0  0  0
 39 82  1  0  0  0  0
 40 42  2  0  0  0  0
 40 83  1  0  0  0  0
 41 42  1  0  0  0  0
 41 84  1  0  0  0  0
 42 85  1  0  0  0  0
M  END
> <PUBCHEM_COMPOUND_CID>
145949153

> <PUBCHEM_CONFORMER_RMSD>
1.8

> <PUBCHEM_CONFORMER_DIVERSEORDER>
1
114
74
133
17
27
49
90
35
46
106
137
51
110
113
134
127
41
132
73
101
115
112
53
57
12
42
36
125
72
111
89
76
87
8
129
9
15
40
122
64
45
28
104
34
79
56
98
16
68
131
81
94
85
62
54
88
105
95
43
14
38
3
80
83
39
126
107
55
58
82
37
86
97
11
2
47
84
7
116
99
128
60
63
78
100
130
117
33
102
91
96
120
4
103
48
52
92
20
70
121
22
32
69
123
119
135
118
13
61
67
29
23
93
10
25
21
26
31
44
18
65
108
19
136
59
6
24
75
50
5
66
30
77
124
71
109

> <PUBCHEM_MMFF94_PARTIAL_CHARGES>
44
1 -0.57
10 0.14
16 0.14
17 -0.28
2 -0.43
20 0.14
21 -0.3
22 -0.29
23 -0.12
24 0.2
25 0.5
26 0.66
27 0.46
28 0.05
29 -0.3
3 -0.57
30 0.4
31 -0.14
33 -0.15
35 -0.15
36 -0.15
37 -0.15
38 -0.15
39 -0.15
4 -0.23
40 -0.15
41 -0.15
42 -0.15
5 0.31
6 -0.42
66 0.15
67 0.15
68 0.15
71 0.06
74 0.15
77 0.15
78 0.15
79 0.15
80 0.15
81 0.15
82 0.15
83 0.15
84 0.15
85 0.15

> <PUBCHEM_EFFECTIVE_ROTOR_COUNT>
12.4

> <PUBCHEM_PHARMACOPHORE_FEATURES>
8
1 1 acceptor
1 3 acceptor
3 9 18 19 hydrophobe
5 4 5 6 28 29 rings
6 31 32 33 35 36 37 rings
6 34 38 39 40 41 42 rings
6 7 8 10 12 16 17 rings
6 7 8 9 11 13 14 rings

> <PUBCHEM_HEAVY_ATOM_COUNT>
42

> <PUBCHEM_ATOM_DEF_STEREO_COUNT>
2

> <PUBCHEM_ATOM_UDEF_STEREO_COUNT>
1

> <PUBCHEM_BOND_DEF_STEREO_COUNT>
1

> <PUBCHEM_BOND_UDEF_STEREO_COUNT>
0

> <PUBCHEM_ISOTOPIC_ATOM_COUNT>
0

> <PUBCHEM_COMPONENT_COUNT>
1

> <PUBCHEM_CACTVS_TAUTO_COUNT>
-1

> <PUBCHEM_CONFORMER_ID>
08B301E100000001

> <PUBCHEM_MMFF94_ENERGY>
109.9696

> <PUBCHEM_FEATURE_SELFOVERLAP>
40.613

> <PUBCHEM_SHAPE_FINGERPRINT>
11578080 2 17631472166123457106
12633046 712 16917065525426119081
12788726 201 18337387261475994915
13165054 411 16234247089671488516
14004853 49 17979349760525640725
140371 6 18050014590298380959
14068700 686 18199181965928107076
14340393 91 18269011820980837262
14394314 77 18334850667356627473
14840074 17 18335704906244625369
15001296 14 18408601452949342949
15406563 42 18340777052231055630
15419009 47 18051135787823560054
15968369 153 18334587875249745729
15975801 100 17752496356649964444
16067690 210 18334573563891570866
161222 10 18187660110475586052
18738133 556 17050765332205793271
20764821 26 17970354921537749648
44344687 77 17829905574581722787
463206 1 18189335839158551977
469060 322 17628612426837474846
50677037 204 18263917911629967113
5776283 40 18194146070118861310

> <PUBCHEM_SHAPE_MULTIPOLES>
831.79
12.03
7.07
2.58
4.23
3.12
0.37
-1.01
-1.56
-6.97
-2.15
2.39
-1.77
1.01

> <PUBCHEM_SHAPE_SELFOVERLAP>
1774.32

> <PUBCHEM_SHAPE_VOLUME>
459.5

> <PUBCHEM_COORDINATE_TYPE>
2
5
10

$$$$
