145952235
  -OEChem-02162200003D

 53 54  0     1  0  0  0  0  0999 V2000
    5.4770    0.9855   -0.0478 O   0  0  0  0  0  0  0  0  0  0  0  0
    3.6768   -2.9010    1.0888 O   0  0  0  0  0  0  0  0  0  0  0  0
    3.7500   -2.1854   -1.0695 O   0  0  0  0  0  0  0  0  0  0  0  0
   -1.8501    0.7642   -0.6358 C   0  0  1  0  0  0  0  0  0  0  0  0
   -2.1514   -0.2986    0.4890 C   0  0  2  0  0  0  0  0  0  0  0  0
   -3.5298   -1.0501    0.3854 C   0  0  0  0  0  0  0  0  0  0  0  0
   -0.3444    1.2373   -0.5244 C   0  0  1  0  0  0  0  0  0  0  0  0
   -2.1264    0.1269   -2.0211 C   0  0  0  0  0  0  0  0  0  0  0  0
   -1.8393    0.2689    1.8939 C   0  0  0  0  0  0  0  0  0  0  0  0
   -3.7437   -1.5521   -1.0656 C   0  0  0  0  0  0  0  0  0  0  0  0
   -3.5177   -0.4924   -2.1376 C   0  0  0  0  0  0  0  0  0  0  0  0
   -2.7157    2.0523   -0.5199 C   0  0  0  0  0  0  0  0  0  0  0  0
   -0.3996    0.7803    2.0022 C   0  0  0  0  0  0  0  0  0  0  0  0
   -0.0524    1.7284    0.8858 C   0  0  0  0  0  0  0  0  0  0  0  0
   -3.5024   -2.3104    1.2919 C   0  0  0  0  0  0  0  0  0  0  0  0
   -4.7463   -0.2231    0.8431 C   0  0  0  0  0  0  0  0  0  0  0  0
    0.7153    0.2002   -0.9288 C   0  0  0  0  0  0  0  0  0  0  0  0
    0.4576    2.9467    1.1250 C   0  0  0  0  0  0  0  0  0  0  0  0
    2.0716    0.8287   -1.0030 C   0  0  0  0  0  0  0  0  0  0  0  0
    3.1603    0.4536   -0.3086 C   0  0  0  0  0  0  0  0  0  0  0  0
    3.2255   -0.6218    0.7369 C   0  0  0  0  0  0  0  0  0  0  0  0
    4.4064    1.2168   -0.5980 C   0  0  0  0  0  0  0  0  0  0  0  0
    3.5787   -1.9550    0.1182 C   0  0  0  0  0  0  0  0  0  0  0  0
   -1.4081   -1.0957    0.3324 H   0  0  0  0  0  0  0  0  0  0  0  0
   -0.2314    2.0816   -1.2225 H   0  0  0  0  0  0  0  0  0  0  0  0
   -1.4179   -0.6829   -2.2220 H   0  0  0  0  0  0  0  0  0  0  0  0
   -1.9884    0.8696   -2.8164 H   0  0  0  0  0  0  0  0  0  0  0  0
   -1.9729   -0.5024    2.6593 H   0  0  0  0  0  0  0  0  0  0  0  0
   -2.5322    1.0776    2.1497 H   0  0  0  0  0  0  0  0  0  0  0  0
   -3.0539   -2.3840   -1.2651 H   0  0  0  0  0  0  0  0  0  0  0  0
   -4.7542   -1.9653   -1.1792 H   0  0  0  0  0  0  0  0  0  0  0  0
   -4.2976    0.2734   -2.0906 H   0  0  0  0  0  0  0  0  0  0  0  0
   -3.6155   -0.9604   -3.1248 H   0  0  0  0  0  0  0  0  0  0  0  0
   -2.6768    2.5032    0.4752 H   0  0  0  0  0  0  0  0  0  0  0  0
   -3.7646    1.8936   -0.7633 H   0  0  0  0  0  0  0  0  0  0  0  0
   -2.3659    2.8137   -1.2285 H   0  0  0  0  0  0  0  0  0  0  0  0
    0.2838   -0.0739    1.9854 H   0  0  0  0  0  0  0  0  0  0  0  0
   -0.2682    1.2569    2.9813 H   0  0  0  0  0  0  0  0  0  0  0  0
   -3.4891   -2.0503    2.3550 H   0  0  0  0  0  0  0  0  0  0  0  0
   -2.6240   -2.9322    1.0854 H   0  0  0  0  0  0  0  0  0  0  0  0
   -4.3897   -2.9333    1.1260 H   0  0  0  0  0  0  0  0  0  0  0  0
   -4.6115    0.1746    1.8536 H   0  0  0  0  0  0  0  0  0  0  0  0
   -5.6485   -0.8472    0.8674 H   0  0  0  0  0  0  0  0  0  0  0  0
   -4.9775    0.6082    0.1795 H   0  0  0  0  0  0  0  0  0  0  0  0
    0.6973   -0.6782   -0.2786 H   0  0  0  0  0  0  0  0  0  0  0  0
    0.5207   -0.1705   -1.9400 H   0  0  0  0  0  0  0  0  0  0  0  0
    0.6939    3.6289    0.3153 H   0  0  0  0  0  0  0  0  0  0  0  0
    0.6513    3.2887    2.1361 H   0  0  0  0  0  0  0  0  0  0  0  0
    2.1579    1.6339   -1.7318 H   0  0  0  0  0  0  0  0  0  0  0  0
    2.2720   -0.7284    1.2582 H   0  0  0  0  0  0  0  0  0  0  0  0
    3.9786   -0.3743    1.4934 H   0  0  0  0  0  0  0  0  0  0  0  0
    4.3202    2.0176   -1.3519 H   0  0  0  0  0  0  0  0  0  0  0  0
    3.9018   -3.7814    0.7193 H   0  0  0  0  0  0  0  0  0  0  0  0
  1 22  2  0  0  0  0
  2 23  1  0  0  0  0
  2 53  1  0  0  0  0
  3 23  2  0  0  0  0
  4  5  1  0  0  0  0
  4  7  1  0  0  0  0
  4  8  1  0  0  0  0
  4 12  1  0  0  0  0
  5  6  1  0  0  0  0
  5  9  1  0  0  0  0
  5 24  1  0  0  0  0
  6 10  1  0  0  0  0
  6 15  1  0  0  0  0
  6 16  1  0  0  0  0
  7 14  1  0  0  0  0
  7 17  1  0  0  0  0
  7 25  1  0  0  0  0
  8 11  1  0  0  0  0
  8 26  1  0  0  0  0
  8 27  1  0  0  0  0
  9 13  1  0  0  0  0
  9 28  1  0  0  0  0
  9 29  1  0  0  0  0
 10 11  1  0  0  0  0
 10 30  1  0  0  0  0
 10 31  1  0  0  0  0
 11 32  1  0  0  0  0
 11 33  1  0  0  0  0
 12 34  1  0  0  0  0
 12 35  1  0  0  0  0
 12 36  1  0  0  0  0
 13 14  1  0  0  0  0
 13 37  1  0  0  0  0
 13 38  1  0  0  0  0
 14 18  2  0  0  0  0
 15 39  1  0  0  0  0
 15 40  1  0  0  0  0
 15 41  1  0  0  0  0
 16 42  1  0  0  0  0
 16 43  1  0  0  0  0
 16 44  1  0  0  0  0
 17 19  1  0  0  0  0
 17 45  1  0  0  0  0
 17 46  1  0  0  0  0
 18 47  1  0  0  0  0
 18 48  1  0  0  0  0
 19 20  2  0  0  0  0
 19 49  1  0  0  0  0
 20 21  1  0  0  0  0
 20 22  1  0  0  0  0
 21 23  1  0  0  0  0
 21 50  1  0  0  0  0
 21 51  1  0  0  0  0
 22 52  1  0  0  0  0
M  END
> <PUBCHEM_COMPOUND_CID>
145952235

> <PUBCHEM_CONFORMER_RMSD>
0.8

> <PUBCHEM_CONFORMER_DIVERSEORDER>
1
94
26
14
74
86
51
91
58
88
68
36
83
45
67
3
57
53
30
78
72
34
44
64
10
84
43
48
87
21
56
65
76
79
17
54
15
27
81
77
42
32
80
75
12
40
31
52
6
50
18
89
69
25
73
71
85
37
46
7
22
23
49
62
19
63
38
39
33
29
41
9
59
8
5
28
24
90
92
95
66
93
11
35
60
70
61
55
13
20
47
4
2
16
82

> <PUBCHEM_MMFF94_PARTIAL_CHARGES>
18
1 -0.57
13 0.14
14 -0.28
17 0.14
18 -0.3
19 -0.29
2 -0.65
20 -0.12
21 0.2
22 0.5
23 0.66
3 -0.57
47 0.15
48 0.15
49 0.15
52 0.06
53 0.5
7 0.14

> <PUBCHEM_EFFECTIVE_ROTOR_COUNT>
6.4

> <PUBCHEM_PHARMACOPHORE_FEATURES>
7
1 1 acceptor
1 2 acceptor
1 3 acceptor
3 2 3 23 anion
3 6 15 16 hydrophobe
6 4 5 6 8 10 11 rings
6 4 5 7 9 13 14 rings

> <PUBCHEM_HEAVY_ATOM_COUNT>
23

> <PUBCHEM_ATOM_DEF_STEREO_COUNT>
2

> <PUBCHEM_ATOM_UDEF_STEREO_COUNT>
1

> <PUBCHEM_BOND_DEF_STEREO_COUNT>
1

> <PUBCHEM_BOND_UDEF_STEREO_COUNT>
0

> <PUBCHEM_ISOTOPIC_ATOM_COUNT>
0

> <PUBCHEM_COMPONENT_COUNT>
1

> <PUBCHEM_CACTVS_TAUTO_COUNT>
-1

> <PUBCHEM_CONFORMER_ID>
08B30DEB00000001

> <PUBCHEM_MMFF94_ENERGY>
61.1454

> <PUBCHEM_FEATURE_SELFOVERLAP>
35.592

> <PUBCHEM_SHAPE_FINGERPRINT>
10090160 65 18266739259242410116
11045977 3 13326861040851175135
11132069 177 14405178452398942273
11578080 2 17631428168768978561
11595378 159 17346601850709474570
12011746 2 13973696000862927489
121448 382 16081083796961262353
12553582 1 18060414737831315028
12633257 1 15410895124282027682
12788726 201 17917438561992287377
12824470 246 18343023315367600755
13004483 165 18201722791069938873
13083527 12 13036896812789148213
13224815 77 18060701663264014134
13296908 3 18114465569969855758
13544653 18 18412542119702837036
13583140 156 18342738532976233437
13911987 19 17971773304897515892
14251757 17 17676196966262398662
14787075 74 18198627825152459092
14957384 54 10447934949100428356
15099037 8 18267022765453198122
15375358 24 17095240337315571836
15375462 189 18130790100411319692
15475509 35 18052269672174612131
15484559 13 12700369503054336290
15537594 2 18059581316544312742
17349148 13 15213011687451670776
17492 89 18340208462606129774
1813 80 17774453787928977220
18186145 218 16950563229640699740
18222031 100 16414901050207750797
200 152 18408606972240988744
21033650 10 14924787771162894518
21069387 34 17967814895169118342
21857420 4 13207991421507263806
22907989 373 11459299863507061473
235170 7 17458339741188534654
23559900 14 18113891680830157852
312423 11 18271254803146885406
463206 1 18337113483233984522
633830 44 12829765155196131854
90316 7 16702021954850044577
9709674 26 17821734931338170978

> <PUBCHEM_SHAPE_MULTIPOLES>
455.72
9.43
2.61
1.86
6.36
0.55
0.07
4.31
0.82
1.36
-0.76
-1.47
0.05
-0.1

> <PUBCHEM_SHAPE_SELFOVERLAP>
931.031

> <PUBCHEM_SHAPE_VOLUME>
261.6

> <PUBCHEM_COORDINATE_TYPE>
2
5
10

$$$$
