10094001
  -OEChem-02162203243D

 42 44  0     0  0  0  0  0  0999 V2000
   -3.4408    5.9297   -0.0749 Cl  0  0  0  0  0  0  0  0  0  0  0  0
    3.1110   -0.8860   -0.1008 S   0  0  0  0  0  0  0  0  0  0  0  0
    6.2028    1.4682    0.7426 F   0  0  0  0  0  0  0  0  0  0  0  0
    5.7182   -0.5436    1.4514 F   0  0  0  0  0  0  0  0  0  0  0  0
    6.0315   -0.1784   -0.6730 F   0  0  0  0  0  0  0  0  0  0  0  0
    1.3920   -2.9941   -0.9154 O   0  0  0  0  0  0  0  0  0  0  0  0
    0.3812   -1.0366   -0.4775 N   0  0  0  0  0  0  0  0  0  0  0  0
   -0.9614   -2.9242   -0.9074 N   0  0  0  0  0  0  0  0  0  0  0  0
   -0.7067   -0.2328   -0.5330 N   0  0  0  0  0  0  0  0  0  0  0  0
    1.1775    0.9947   -0.1381 N   0  0  0  0  0  0  0  0  0  0  0  0
    0.3296   -2.4127   -0.7350 C   0  0  0  0  0  0  0  0  0  0  0  0
   -2.0541   -2.6977    0.0080 C   0  0  0  0  0  0  0  0  0  0  0  0
    1.5033   -0.2694   -0.2682 C   0  0  0  0  0  0  0  0  0  0  0  0
   -0.1726    0.9671   -0.3058 C   0  0  0  0  0  0  0  0  0  0  0  0
   -0.9615    2.1646   -0.2487 C   0  0  0  0  0  0  0  0  0  0  0  0
   -1.1366   -3.9591   -1.9244 C   0  0  0  0  0  0  0  0  0  0  0  0
   -1.7868   -2.5118    1.3563 C   0  0  0  0  0  0  0  0  0  0  0  0
   -3.3537   -2.6684   -0.4759 C   0  0  0  0  0  0  0  0  0  0  0  0
   -2.3428    2.1002   -0.4346 C   0  0  0  0  0  0  0  0  0  0  0  0
   -0.3477    3.3944   -0.0089 C   0  0  0  0  0  0  0  0  0  0  0  0
    4.0360    0.6328    0.2652 C   0  0  0  0  0  0  0  0  0  0  0  0
   -2.8429   -2.2918    2.2408 C   0  0  0  0  0  0  0  0  0  0  0  0
   -4.4097   -2.4484    0.4084 C   0  0  0  0  0  0  0  0  0  0  0  0
   -3.1094    3.2644   -0.3806 C   0  0  0  0  0  0  0  0  0  0  0  0
   -1.1142    4.5586    0.0451 C   0  0  0  0  0  0  0  0  0  0  0  0
   -4.1542   -2.2602    1.7668 C   0  0  0  0  0  0  0  0  0  0  0  0
   -2.4951    4.4936   -0.1408 C   0  0  0  0  0  0  0  0  0  0  0  0
    5.5071    0.3466    0.4584 C   0  0  0  0  0  0  0  0  0  0  0  0
   -1.5368   -4.8667   -1.4617 H   0  0  0  0  0  0  0  0  0  0  0  0
   -0.1843   -4.2036   -2.4050 H   0  0  0  0  0  0  0  0  0  0  0  0
   -1.8184   -3.5961   -2.6987 H   0  0  0  0  0  0  0  0  0  0  0  0
   -0.7757   -2.5481    1.7516 H   0  0  0  0  0  0  0  0  0  0  0  0
   -3.5799   -2.7963   -1.5298 H   0  0  0  0  0  0  0  0  0  0  0  0
   -2.8562    1.1606   -0.6229 H   0  0  0  0  0  0  0  0  0  0  0  0
    0.7261    3.4779    0.1398 H   0  0  0  0  0  0  0  0  0  0  0  0
    3.9085    1.3432   -0.5580 H   0  0  0  0  0  0  0  0  0  0  0  0
    3.6338    1.0886    1.1758 H   0  0  0  0  0  0  0  0  0  0  0  0
   -2.6444   -2.1483    3.2988 H   0  0  0  0  0  0  0  0  0  0  0  0
   -5.4307   -2.4199    0.0392 H   0  0  0  0  0  0  0  0  0  0  0  0
   -4.1845    3.1990   -0.5271 H   0  0  0  0  0  0  0  0  0  0  0  0
   -0.6222    5.5096    0.2327 H   0  0  0  0  0  0  0  0  0  0  0  0
   -4.9765   -2.0885    2.4552 H   0  0  0  0  0  0  0  0  0  0  0  0
  1 27  1  0  0  0  0
  2 13  1  0  0  0  0
  2 21  1  0  0  0  0
  3 28  1  0  0  0  0
  4 28  1  0  0  0  0
  5 28  1  0  0  0  0
  6 11  2  0  0  0  0
  7  9  1  0  0  0  0
  7 11  1  0  0  0  0
  7 13  1  0  0  0  0
  8 11  1  0  0  0  0
  8 12  1  0  0  0  0
  8 16  1  0  0  0  0
  9 14  2  0  0  0  0
 10 13  2  0  0  0  0
 10 14  1  0  0  0  0
 12 17  2  0  0  0  0
 12 18  1  0  0  0  0
 14 15  1  0  0  0  0
 15 19  2  0  0  0  0
 15 20  1  0  0  0  0
 16 29  1  0  0  0  0
 16 30  1  0  0  0  0
 16 31  1  0  0  0  0
 17 22  1  0  0  0  0
 17 32  1  0  0  0  0
 18 23  2  0  0  0  0
 18 33  1  0  0  0  0
 19 24  1  0  0  0  0
 19 34  1  0  0  0  0
 20 25  2  0  0  0  0
 20 35  1  0  0  0  0
 21 28  1  0  0  0  0
 21 36  1  0  0  0  0
 21 37  1  0  0  0  0
 22 26  2  0  0  0  0
 22 38  1  0  0  0  0
 23 26  1  0  0  0  0
 23 39  1  0  0  0  0
 24 27  2  0  0  0  0
 24 40  1  0  0  0  0
 25 27  1  0  0  0  0
 25 41  1  0  0  0  0
 26 42  1  0  0  0  0
M  END
> <PUBCHEM_COMPOUND_CID>
10094001

> <PUBCHEM_CONFORMER_RMSD>
0.8

> <PUBCHEM_CONFORMER_DIVERSEORDER>
1
105
100
11
115
79
28
140
58
43
57
91
96
31
127
34
71
126
80
82
42
2
110
107
50
59
83
93
67
68
37
25
134
120
44
69
86
16
23
61
77
48
10
24
74
14
18
130
26
4
46
135
133
123
33
72
124
64
32
85
19
87
21
131
139
138
128
137
62
75
41
63
89
109
117
38
54
102
78
129
6
121
5
47
90
70
17
8
84
56
104
88
101
81
39
76
52
118
108
65
114
7
29
22
132
99
106
122
53
20
66
116
136
94
95
60
3
36
73
125
40
49
51
15
27
141
30
55
35
112
111
103
97
119
13
98
12
9
113
92
45

> <PUBCHEM_MMFF94_PARTIAL_CHARGES>
37
1 -0.18
10 -0.57
11 0.64
12 0.12
13 0.24
14 0.46
15 0.05
16 0.3
17 -0.15
18 -0.15
19 -0.15
2 -0.29
20 -0.15
21 0.23
22 -0.15
23 -0.15
24 -0.15
25 -0.15
26 -0.15
27 0.18
28 1.02
3 -0.34
32 0.15
33 0.15
34 0.15
35 0.15
38 0.15
39 0.15
4 -0.34
40 0.15
41 0.15
42 0.15
5 -0.34
6 -0.57
7 0.56
8 -0.48
9 -0.71

> <PUBCHEM_EFFECTIVE_ROTOR_COUNT>
7

> <PUBCHEM_PHARMACOPHORE_FEATURES>
5
1 6 acceptor
3 9 10 14 cation
5 7 9 10 13 14 rings
6 12 17 18 22 23 26 rings
6 15 19 20 24 25 27 rings

> <PUBCHEM_HEAVY_ATOM_COUNT>
28

> <PUBCHEM_ATOM_DEF_STEREO_COUNT>
0

> <PUBCHEM_ATOM_UDEF_STEREO_COUNT>
0

> <PUBCHEM_BOND_DEF_STEREO_COUNT>
0

> <PUBCHEM_BOND_UDEF_STEREO_COUNT>
0

> <PUBCHEM_ISOTOPIC_ATOM_COUNT>
0

> <PUBCHEM_COMPONENT_COUNT>
1

> <PUBCHEM_CACTVS_TAUTO_COUNT>
1

> <PUBCHEM_CONFORMER_ID>
009A05B100000001

> <PUBCHEM_MMFF94_ENERGY>
85.4775

> <PUBCHEM_FEATURE_SELFOVERLAP>
25.373

> <PUBCHEM_SHAPE_FINGERPRINT>
10006869 2 18336535020001134251
10074138 170 18190158145107232968
10411042 1 18194679499754838687
10985338 1 17040036890658322925
12160290 23 18046309068778005604
12166972 35 17769089382804167939
12788726 201 18261104205903780298
13004483 165 18266457787790072392
13134695 92 17974577102107042195
13140716 1 18263932192702148241
13540713 4 18200600177498951422
13590594 115 18266177429731601529
13692114 37 18051964823489367319
13955234 65 17040640488082486505
14028597 1 17603861204657415691
14790565 3 16679226119411257437
14844126 61 18338221743772952402
14955137 171 18048327922319056538
15042514 8 18408886243662138748
15439362 3 17834677094141838916
15775530 1 18055370045413621342
15927050 60 18122342376476494495
16993438 75 18410009905775066881
19301679 30 18407762542837282538
19427546 62 17977947873713629516
20101258 96 18339640169628872712
20600515 1 17913506888736461886
20739085 24 17980490271298651626
21049683 118 17974830801345959072
21796203 349 17758432881235581777
22182313 1 18199764578294148182
23558518 356 18262240993167673942
23845131 108 18049439249391346785
4058900 60 17762064237757503208
4409770 3 18409719669265168719
513202 73 18410300194526075578
79837 15 18265616468311719216
9777508 108 18339642218211929632
9981440 41 18197766709567581800

> <PUBCHEM_SHAPE_MULTIPOLES>
534.33
9.59
7.81
1.33
19.52
7.49
0.38
3.39
3.48
-12.82
-0.94
-0.55
-1.71
1.92

> <PUBCHEM_SHAPE_SELFOVERLAP>
1135.05

> <PUBCHEM_SHAPE_VOLUME>
304.3

> <PUBCHEM_COORDINATE_TYPE>
2
5
10

$$$$
