676297
  -OEChem-01092204013D

 32 34  0     0  0  0  0  0  0999 V2000
   -0.3512    0.6109   -0.2133 O   0  0  0  0  0  0  0  0  0  0  0  0
    4.4797    1.8164    0.5190 O   0  0  0  0  0  0  0  0  0  0  0  0
   -2.4632   -2.7909    0.5383 O   0  0  0  0  0  0  0  0  0  0  0  0
   -5.8550    0.9914    0.0053 O   0  0  0  0  0  0  0  0  0  0  0  0
   -2.5038   -0.4682    0.1056 C   0  0  0  0  0  0  0  0  0  0  0  0
    0.2795   -0.6070   -0.0096 C   0  0  0  0  0  0  0  0  0  0  0  0
   -1.7208    0.6565   -0.1488 C   0  0  0  0  0  0  0  0  0  0  0  0
    1.7516   -0.5444   -0.1080 C   0  0  0  0  0  0  0  0  0  0  0  0
   -1.8386   -1.7634    0.3141 C   0  0  0  0  0  0  0  0  0  0  0  0
   -0.3638   -1.7594    0.2363 C   0  0  0  0  0  0  0  0  0  0  0  0
   -3.8955   -0.3628    0.1592 C   0  0  0  0  0  0  0  0  0  0  0  0
   -2.3269    1.8966   -0.3520 C   0  0  0  0  0  0  0  0  0  0  0  0
    2.4306    0.6208    0.2567 C   0  0  0  0  0  0  0  0  0  0  0  0
    2.4715   -1.6507   -0.5663 C   0  0  0  0  0  0  0  0  0  0  0  0
   -4.4990    0.8788   -0.0440 C   0  0  0  0  0  0  0  0  0  0  0  0
    3.8211    0.6796    0.1634 C   0  0  0  0  0  0  0  0  0  0  0  0
   -3.7166    2.0060   -0.2992 C   0  0  0  0  0  0  0  0  0  0  0  0
    3.8620   -1.5916   -0.6598 C   0  0  0  0  0  0  0  0  0  0  0  0
    4.5369   -0.4264   -0.2950 C   0  0  0  0  0  0  0  0  0  0  0  0
    5.9014    1.8080    0.3982 C   0  0  0  0  0  0  0  0  0  0  0  0
    0.1320   -2.7077    0.4075 H   0  0  0  0  0  0  0  0  0  0  0  0
   -4.5098   -1.2373    0.3570 H   0  0  0  0  0  0  0  0  0  0  0  0
   -1.7253    2.7792   -0.5513 H   0  0  0  0  0  0  0  0  0  0  0  0
    1.8930    1.4921    0.6242 H   0  0  0  0  0  0  0  0  0  0  0  0
    1.9820   -2.5686   -0.8809 H   0  0  0  0  0  0  0  0  0  0  0  0
   -4.1853    2.9735   -0.4580 H   0  0  0  0  0  0  0  0  0  0  0  0
    4.4185   -2.4515   -1.0216 H   0  0  0  0  0  0  0  0  0  0  0  0
    5.6168   -0.4488   -0.3936 H   0  0  0  0  0  0  0  0  0  0  0  0
   -6.2378    0.1167    0.1912 H   0  0  0  0  0  0  0  0  0  0  0  0
    6.2160    1.6818   -0.6433 H   0  0  0  0  0  0  0  0  0  0  0  0
    6.3574    1.0659    1.0624 H   0  0  0  0  0  0  0  0  0  0  0  0
    6.2592    2.7904    0.7232 H   0  0  0  0  0  0  0  0  0  0  0  0
  1  6  1  0  0  0  0
  1  7  1  0  0  0  0
  2 16  1  0  0  0  0
  2 20  1  0  0  0  0
  3  9  2  0  0  0  0
  4 15  1  0  0  0  0
  4 29  1  0  0  0  0
  5  7  2  0  0  0  0
  5  9  1  0  0  0  0
  5 11  1  0  0  0  0
  6  8  1  0  0  0  0
  6 10  2  0  0  0  0
  7 12  1  0  0  0  0
  8 13  2  0  0  0  0
  8 14  1  0  0  0  0
  9 10  1  0  0  0  0
 10 21  1  0  0  0  0
 11 15  2  0  0  0  0
 11 22  1  0  0  0  0
 12 17  2  0  0  0  0
 12 23  1  0  0  0  0
 13 16  1  0  0  0  0
 13 24  1  0  0  0  0
 14 18  2  0  0  0  0
 14 25  1  0  0  0  0
 15 17  1  0  0  0  0
 16 19  2  0  0  0  0
 17 26  1  0  0  0  0
 18 19  1  0  0  0  0
 18 27  1  0  0  0  0
 19 28  1  0  0  0  0
 20 30  1  0  0  0  0
 20 31  1  0  0  0  0
 20 32  1  0  0  0  0
M  END
> <PUBCHEM_COMPOUND_CID>
676297

> <PUBCHEM_CONFORMER_RMSD>
0.6

> <PUBCHEM_CONFORMER_DIVERSEORDER>
1
3
6
8
5
2
4
7

> <PUBCHEM_MMFF94_PARTIAL_CHARGES>
29
1 -0.16
10 -0.14
11 -0.15
12 -0.15
13 -0.15
14 -0.15
15 0.08
16 0.08
17 -0.15
18 -0.15
19 -0.15
2 -0.36
20 0.28
21 0.15
22 0.15
23 0.15
24 0.15
25 0.15
26 0.15
27 0.15
28 0.15
29 0.45
3 -0.57
4 -0.53
5 0.09
6 0.05
7 0.08
8 0.03
9 0.47

> <PUBCHEM_EFFECTIVE_ROTOR_COUNT>
2

> <PUBCHEM_PHARMACOPHORE_FEATURES>
7
1 1 acceptor
1 2 acceptor
1 3 acceptor
1 4 donor
6 1 5 6 7 9 10 rings
6 5 7 11 12 15 17 rings
6 8 13 14 16 18 19 rings

> <PUBCHEM_HEAVY_ATOM_COUNT>
20

> <PUBCHEM_ATOM_DEF_STEREO_COUNT>
0

> <PUBCHEM_ATOM_UDEF_STEREO_COUNT>
0

> <PUBCHEM_BOND_DEF_STEREO_COUNT>
0

> <PUBCHEM_BOND_UDEF_STEREO_COUNT>
0

> <PUBCHEM_ISOTOPIC_ATOM_COUNT>
0

> <PUBCHEM_COMPONENT_COUNT>
1

> <PUBCHEM_CACTVS_TAUTO_COUNT>
3

> <PUBCHEM_CONFORMER_ID>
000A51C900000001

> <PUBCHEM_MMFF94_ENERGY>
68.586

> <PUBCHEM_FEATURE_SELFOVERLAP>
35.55

> <PUBCHEM_SHAPE_FINGERPRINT>
10 15 18187928425857553144
10014705 185 18410572903072984583
10319926 262 18337095853131317018
10411042 1 17616254019395339803
10498660 4 18189330178381093405
10608611 8 18411981364794175894
10646746 165 18408042909948891222
11132069 177 18259988184041637061
11405975 8 18408602539966673394
11578080 2 16843584197248988883
11595378 159 17240751857613791812
12173636 292 18335419011424430517
12236239 1 17022627467998335326
12403259 415 18261955124792938509
12507560 40 18411423938053022974
12596602 18 16371012939900107360
12730499 353 18341621394987193522
12969540 114 18188192218690861031
13081056 2 18411137991693422053
13214271 11 18339921635767365294
13402501 40 18411697686225559432
13544592 145 18267313044970973718
14790565 3 18124884465078144569
15042514 8 18261403299369335651
15196674 1 18411419509593230383
15219456 202 18341615932052400734
15375358 24 18413108355327585534
15961568 22 18114185272147481764
17980427 23 17896319297739074684
18186145 218 18268713813830399740
200 152 17275101691554793327
20510252 161 18340770347486393385
20645477 56 18335422365466899077
20645477 70 17560526114559948526
21033648 29 18262225630312775389
21065198 57 18410294705446737478
21236236 1 18341048614338960871
21315764 268 18260823761555852476
21521721 280 18342179939084547105
21859007 373 17316179360274959372
221357 26 18201438013105199660
22224240 67 18336838507539208033
23227448 37 18410854407977381589
23402539 116 18410851054167125143
23402655 69 18060136535719917116
23557571 272 18339371875721995270
23559900 14 18270400482607452270
245318 6 16737782694851166748
335352 9 18338800018576153582
34934 24 18410288129403323466
3545911 37 18411421713402245588
4073 2 18114749330423439466
4214541 1 18410294700829678990
465052 167 11097859566730176776
474 4 17386296492631382756
495365 180 17917982863725028098
5104073 3 18335424538646680555
59755656 215 18412549782747432508
633830 44 18126841604153913373
69090 78 18413106134993114807
77779 3 18341333309907692628
9709674 26 18413394228340556806

> <PUBCHEM_SHAPE_MULTIPOLES>
388.11
11.77
2.42
0.7
3.82
0.39
0.02
-6.2
-0.33
-0.05
-0.14
0.18
0.05
1.25

> <PUBCHEM_SHAPE_SELFOVERLAP>
860.237

> <PUBCHEM_SHAPE_VOLUME>
207.2

> <PUBCHEM_COORDINATE_TYPE>
2
5
10

$$$$
