96389
  -OEChem-02212201543D

 18 19  0     0  0  0  0  0  0999 V2000
    3.8393    0.6324   -0.0012 O   0  0  0  0  0  0  0  0  0  0  0  0
    0.9165    0.8842    0.0007 N   0  0  0  0  0  0  0  0  0  0  0  0
   -0.4332    0.6127    0.0004 C   0  0  0  0  0  0  0  0  0  0  0  0
   -0.5730   -0.7769    0.0001 C   0  0  0  0  0  0  0  0  0  0  0  0
    0.7388   -1.3284    0.0006 C   0  0  0  0  0  0  0  0  0  0  0  0
    1.6329   -0.2825    0.0009 C   0  0  0  0  0  0  0  0  0  0  0  0
   -1.5299    1.4820    0.0001 C   0  0  0  0  0  0  0  0  0  0  0  0
   -1.8696   -1.3281   -0.0006 C   0  0  0  0  0  0  0  0  0  0  0  0
   -2.8063    0.9124   -0.0002 C   0  0  0  0  0  0  0  0  0  0  0  0
   -2.9760   -0.4708   -0.0005 C   0  0  0  0  0  0  0  0  0  0  0  0
    3.0605   -0.3371   -0.0003 C   0  0  0  0  0  0  0  0  0  0  0  0
    1.3171    1.8122    0.0007 H   0  0  0  0  0  0  0  0  0  0  0  0
    0.9956   -2.3795    0.0004 H   0  0  0  0  0  0  0  0  0  0  0  0
   -1.3988    2.5588    0.0002 H   0  0  0  0  0  0  0  0  0  0  0  0
   -2.0162   -2.4044   -0.0009 H   0  0  0  0  0  0  0  0  0  0  0  0
   -3.6795    1.5597   -0.0003 H   0  0  0  0  0  0  0  0  0  0  0  0
   -3.9785   -0.8903   -0.0007 H   0  0  0  0  0  0  0  0  0  0  0  0
    3.4904   -1.3542   -0.0006 H   0  0  0  0  0  0  0  0  0  0  0  0
  1 11  2  0  0  0  0
  2  3  1  0  0  0  0
  2  6  1  0  0  0  0
  2 12  1  0  0  0  0
  3  4  1  0  0  0  0
  3  7  2  0  0  0  0
  4  5  1  0  0  0  0
  4  8  2  0  0  0  0
  5  6  2  0  0  0  0
  5 13  1  0  0  0  0
  6 11  1  0  0  0  0
  7  9  1  0  0  0  0
  7 14  1  0  0  0  0
  8 10  1  0  0  0  0
  8 15  1  0  0  0  0
  9 10  2  0  0  0  0
  9 16  1  0  0  0  0
 10 17  1  0  0  0  0
 11 18  1  0  0  0  0
M  END
> <PUBCHEM_COMPOUND_CID>
96389

> <PUBCHEM_CONFORMER_RMSD>
0.4

> <PUBCHEM_CONFORMER_DIVERSEORDER>
1
2

> <PUBCHEM_MMFF94_PARTIAL_CHARGES>
17
1 -0.57
10 -0.15
11 0.59
12 0.27
13 0.15
14 0.15
15 0.15
16 0.15
17 0.15
18 0.06
2 0.03
3 -0.15
5 -0.15
6 -0.24
7 -0.15
8 -0.15
9 -0.15

> <PUBCHEM_EFFECTIVE_ROTOR_COUNT>
1

> <PUBCHEM_PHARMACOPHORE_FEATURES>
5
1 1 acceptor
1 2 cation
1 2 donor
5 2 3 4 5 6 rings
6 3 4 7 8 9 10 rings

> <PUBCHEM_HEAVY_ATOM_COUNT>
11

> <PUBCHEM_ATOM_DEF_STEREO_COUNT>
0

> <PUBCHEM_ATOM_UDEF_STEREO_COUNT>
0

> <PUBCHEM_BOND_DEF_STEREO_COUNT>
0

> <PUBCHEM_BOND_UDEF_STEREO_COUNT>
0

> <PUBCHEM_ISOTOPIC_ATOM_COUNT>
0

> <PUBCHEM_COMPONENT_COUNT>
1

> <PUBCHEM_CACTVS_TAUTO_COUNT>
4

> <PUBCHEM_CONFORMER_ID>
0001788500000001

> <PUBCHEM_MMFF94_ENERGY>
16.1781

> <PUBCHEM_FEATURE_SELFOVERLAP>
25.463

> <PUBCHEM_SHAPE_FINGERPRINT>
10608611 8 18413103940217373168
12032990 46 18411708694078747190
12932764 1 17275092934216684070
13024252 1 15285358414440295465
13380535 76 18410854326394387471
14325111 11 18410855434648495360
15219456 202 18130796598834112198
16945 1 18410855456081205283
193761 8 17545883093035685159
20871998 184 18201442531690461135
21040471 1 18266458698549823297
23235685 24 18411694353388433797
23402539 116 18342448271108079439
23402655 69 18196636425290927733
23463225 33 18262514789228090986
23552423 10 18188491388252374543
23559900 14 18271525313314851350
2748010 2 18050844717461673871
369184 2 16732982003111914987
5084963 1 18272933851248247187
528886 8 18411131429146800635
53812653 166 18343016675063220704
6333449 129 18341891891947939117
7364860 26 18124875664442098482

> <PUBCHEM_SHAPE_MULTIPOLES>
215.52
5.06
1.44
0.6
3.01
0.02
0
-0.65
0
-0.56
0
-0.04
0.01
0

> <PUBCHEM_SHAPE_SELFOVERLAP>
474.044

> <PUBCHEM_SHAPE_VOLUME>
117.6

> <PUBCHEM_COORDINATE_TYPE>
2
5
10

$$$$
