5311436
  -OEChem-02202223203D

 53 52  0     1  0  0  0  0  0999 V2000
   -0.6841   -1.7692    1.1632 O   0  0  0  0  0  0  0  0  0  0  0  0
    0.6869   -0.9636   -1.1831 O   0  0  0  0  0  0  0  0  0  0  0  0
   -5.0141    1.1706   -0.9264 O   0  0  0  0  0  0  0  0  0  0  0  0
   -2.5766   -3.0645    0.8852 O   0  0  0  0  0  0  0  0  0  0  0  0
    0.2373   -2.6284   -2.7480 O   0  0  0  0  0  0  0  0  0  0  0  0
   -4.8449    2.9844    0.5241 O   0  0  0  0  0  0  0  0  0  0  0  0
   -1.4563   -0.5844    0.9463 C   0  0  1  0  0  0  0  0  0  0  0  0
   -0.8809    0.5471    1.8217 C   0  0  0  0  0  0  0  0  0  0  0  0
   -1.5469   -0.2377   -0.5366 C   0  0  0  0  0  0  0  0  0  0  0  0
    0.5006    0.9861    1.4093 C   0  0  0  0  0  0  0  0  0  0  0  0
   -2.7883    0.3515   -1.0436 C   0  0  0  0  0  0  0  0  0  0  0  0
    1.6830    0.5753    1.9068 C   0  0  0  0  0  0  0  0  0  0  0  0
   -0.5452   -0.4184   -1.4216 C   0  0  0  0  0  0  0  0  0  0  0  0
   -1.3789   -2.9409    1.1031 C   0  0  0  0  0  0  0  0  0  0  0  0
    1.8566   -0.4584    2.9837 C   0  0  0  0  0  0  0  0  0  0  0  0
   -3.9008    0.6182   -0.3505 C   0  0  0  0  0  0  0  0  0  0  0  0
   -0.4475   -4.0893    1.3472 C   0  0  0  0  0  0  0  0  0  0  0  0
    2.8732    1.1451    1.3524 C   0  0  0  0  0  0  0  0  0  0  0  0
    0.9654   -2.0896   -1.9242 C   0  0  0  0  0  0  0  0  0  0  0  0
    3.8743    1.6138    0.8825 C   0  0  0  0  0  0  0  0  0  0  0  0
    5.7164    1.6578   -0.7236 C   0  0  0  0  0  0  0  0  0  0  0  0
    5.0580    2.1739    0.3298 C   0  0  0  0  0  0  0  0  0  0  0  0
    2.3412   -2.5829   -1.5838 C   0  0  0  0  0  0  0  0  0  0  0  0
   -5.3922    2.3793   -0.3888 C   0  0  0  0  0  0  0  0  0  0  0  0
    6.9647    2.3196   -1.2422 C   0  0  0  0  0  0  0  0  0  0  0  0
    5.3077    0.4197   -1.4754 C   0  0  0  0  0  0  0  0  0  0  0  0
   -6.6086    2.8848   -1.1077 C   0  0  0  0  0  0  0  0  0  0  0  0
   -2.4553   -0.7767    1.3523 H   0  0  0  0  0  0  0  0  0  0  0  0
   -1.5405    1.4231    1.7784 H   0  0  0  0  0  0  0  0  0  0  0  0
   -0.8758    0.2273    2.8699 H   0  0  0  0  0  0  0  0  0  0  0  0
    0.5068    1.7365    0.6177 H   0  0  0  0  0  0  0  0  0  0  0  0
   -2.8013    0.5956   -2.1056 H   0  0  0  0  0  0  0  0  0  0  0  0
   -0.6296   -0.1373   -2.4669 H   0  0  0  0  0  0  0  0  0  0  0  0
    0.9158   -0.9057    3.3129 H   0  0  0  0  0  0  0  0  0  0  0  0
    2.4921   -1.2755    2.6241 H   0  0  0  0  0  0  0  0  0  0  0  0
    2.3357   -0.0124    3.8620 H   0  0  0  0  0  0  0  0  0  0  0  0
   -4.0514    0.4359    0.7037 H   0  0  0  0  0  0  0  0  0  0  0  0
    0.0307   -3.9780    2.3238 H   0  0  0  0  0  0  0  0  0  0  0  0
    0.3027   -4.1329    0.5541 H   0  0  0  0  0  0  0  0  0  0  0  0
   -1.0154   -5.0240    1.3439 H   0  0  0  0  0  0  0  0  0  0  0  0
    5.4325    3.0748    0.8076 H   0  0  0  0  0  0  0  0  0  0  0  0
    2.4856   -2.5756   -0.4999 H   0  0  0  0  0  0  0  0  0  0  0  0
    2.4515   -3.6142   -1.9310 H   0  0  0  0  0  0  0  0  0  0  0  0
    3.0877   -1.9544   -2.0740 H   0  0  0  0  0  0  0  0  0  0  0  0
    6.8289    2.6194   -2.2865 H   0  0  0  0  0  0  0  0  0  0  0  0
    7.2292    3.2159   -0.6711 H   0  0  0  0  0  0  0  0  0  0  0  0
    7.8117    1.6280   -1.1858 H   0  0  0  0  0  0  0  0  0  0  0  0
    4.4025   -0.0463   -1.0777 H   0  0  0  0  0  0  0  0  0  0  0  0
    6.1070   -0.3275   -1.4327 H   0  0  0  0  0  0  0  0  0  0  0  0
    5.1177    0.6628   -2.5261 H   0  0  0  0  0  0  0  0  0  0  0  0
   -7.4258    2.1666   -1.0036 H   0  0  0  0  0  0  0  0  0  0  0  0
   -6.9229    3.8346   -0.6656 H   0  0  0  0  0  0  0  0  0  0  0  0
   -6.3730    3.0509   -2.1619 H   0  0  0  0  0  0  0  0  0  0  0  0
  1  7  1  0  0  0  0
  1 14  1  0  0  0  0
  2 13  1  0  0  0  0
  2 19  1  0  0  0  0
  3 16  1  0  0  0  0
  3 24  1  0  0  0  0
  4 14  2  0  0  0  0
  5 19  2  0  0  0  0
  6 24  2  0  0  0  0
  7  8  1  0  0  0  0
  7  9  1  0  0  0  0
  7 28  1  0  0  0  0
  8 10  1  0  0  0  0
  8 29  1  0  0  0  0
  8 30  1  0  0  0  0
  9 11  1  0  0  0  0
  9 13  2  0  0  0  0
 10 12  2  0  0  0  0
 10 31  1  0  0  0  0
 11 16  2  0  0  0  0
 11 32  1  0  0  0  0
 12 15  1  0  0  0  0
 12 18  1  0  0  0  0
 13 33  1  0  0  0  0
 14 17  1  0  0  0  0
 15 34  1  0  0  0  0
 15 35  1  0  0  0  0
 15 36  1  0  0  0  0
 16 37  1  0  0  0  0
 17 38  1  0  0  0  0
 17 39  1  0  0  0  0
 17 40  1  0  0  0  0
 18 20  3  0  0  0  0
 19 23  1  0  0  0  0
 20 22  1  0  0  0  0
 21 22  2  0  0  0  0
 21 25  1  0  0  0  0
 21 26  1  0  0  0  0
 22 41  1  0  0  0  0
 23 42  1  0  0  0  0
 23 43  1  0  0  0  0
 23 44  1  0  0  0  0
 24 27  1  0  0  0  0
 25 45  1  0  0  0  0
 25 46  1  0  0  0  0
 25 47  1  0  0  0  0
 26 48  1  0  0  0  0
 26 49  1  0  0  0  0
 26 50  1  0  0  0  0
 27 51  1  0  0  0  0
 27 52  1  0  0  0  0
 27 53  1  0  0  0  0
M  END
> <PUBCHEM_COMPOUND_CID>
5311436

> <PUBCHEM_CONFORMER_RMSD>
1

> <PUBCHEM_CONFORMER_DIVERSEORDER>
1
59
54
67
34
17
46
119
101
160
25
64
107
80
8
73
98
129
96
92
49
130
90
63
45
161
85
53
106
74
60
14
122
148
65
82
3
81
27
50
78
30
113
18
151
83
94
110
133
154
20
71
77
57
89
140
23
43
109
126
153
142
91
35
124
150
118
15
141
100
125
123
42
16
28
105
11
99
12
103
87
128
117
137
37
41
116
139
114
68
159
5
52
127
115
61
55
47
112
121
136
158
39
9
19
84
40
26
149
134
86
88
157
138
38
79
108
6
156
51
29
70
4
132
155
32
36
135
97
2
66
143
44
75
111
21
7
31
95
69
76
93
22
72
104
24
102
62
131
56
48
10
152
120
58
33
147
145
146
13
144

> <PUBCHEM_MMFF94_PARTIAL_CHARGES>
32
1 -0.43
10 -0.29
11 -0.15
12 -0.07
13 -0.07
14 0.66
15 0.14
16 -0.07
17 0.06
18 -0.06
19 0.66
2 -0.23
20 -0.06
21 -0.28
22 -0.09
23 0.06
24 0.66
25 0.14
26 0.14
27 0.06
3 -0.23
31 0.15
32 0.15
33 0.15
37 0.15
4 -0.57
41 0.15
5 -0.57
6 -0.57
7 0.42
8 0.14
9 -0.14

> <PUBCHEM_EFFECTIVE_ROTOR_COUNT>
10

> <PUBCHEM_PHARMACOPHORE_FEATURES>
5
1 15 hydrophobe
1 4 acceptor
1 5 acceptor
1 6 acceptor
3 21 25 26 hydrophobe

> <PUBCHEM_HEAVY_ATOM_COUNT>
27

> <PUBCHEM_ATOM_DEF_STEREO_COUNT>
1

> <PUBCHEM_ATOM_UDEF_STEREO_COUNT>
0

> <PUBCHEM_BOND_DEF_STEREO_COUNT>
3

> <PUBCHEM_BOND_UDEF_STEREO_COUNT>
0

> <PUBCHEM_ISOTOPIC_ATOM_COUNT>
0

> <PUBCHEM_COMPONENT_COUNT>
1

> <PUBCHEM_CACTVS_TAUTO_COUNT>
1

> <PUBCHEM_CONFORMER_ID>
00510BCC00000001

> <PUBCHEM_MMFF94_ENERGY>
46.2508

> <PUBCHEM_FEATURE_SELFOVERLAP>
25.373

> <PUBCHEM_SHAPE_FINGERPRINT>
105312 117 18409166644770333900
107951 10 18408886273737589370
11445158 3 17316730232865142994
11578080 2 18261968378729710851
1200032 147 17559688235540245313
12597179 24 18412263934676551151
12788726 201 17976235135767388011
15163728 17 18335140860636570009
15183329 4 17489590039019479960
17492 54 17346600750986941566
17980427 26 18192696874527330199
22393880 68 16844711123695122141
23419403 2 18129123198277615139
23559900 14 16770962318223910685
4058900 60 18341901748802957410
58260988 587 18190462662925935953

> <PUBCHEM_SHAPE_MULTIPOLES>
520.43
13.03
4.24
2.51
3.37
2.96
-0.28
-19.48
6.06
-3.07
0.21
1.55
1.26
1.41

> <PUBCHEM_SHAPE_SELFOVERLAP>
1027.611

> <PUBCHEM_SHAPE_VOLUME>
306

> <PUBCHEM_COORDINATE_TYPE>
2
5
10

$$$$
