2773435
  -OEChem-02212201563D

 18 19  0     0  0  0  0  0  0999 V2000
    3.5172    1.0835   -0.0010 O   0  0  0  0  0  0  0  0  0  0  0  0
   -1.7809    1.4772    0.0003 N   0  0  0  0  0  0  0  0  0  0  0  0
   -0.7138    0.6075    0.0002 C   0  0  0  0  0  0  0  0  0  0  0  0
   -1.2385   -0.6868   -0.0002 C   0  0  0  0  0  0  0  0  0  0  0  0
    0.6617    0.8649    0.0006 C   0  0  0  0  0  0  0  0  0  0  0  0
   -2.6560   -0.5626   -0.0005 C   0  0  0  0  0  0  0  0  0  0  0  0
   -0.3486   -1.7792   -0.0002 C   0  0  0  0  0  0  0  0  0  0  0  0
    1.5250   -0.2344    0.0007 C   0  0  0  0  0  0  0  0  0  0  0  0
   -2.9590    0.7794   -0.0002 C   0  0  0  0  0  0  0  0  0  0  0  0
    1.0298   -1.5369    0.0003 C   0  0  0  0  0  0  0  0  0  0  0  0
    2.9630   -0.0125    0.0000 C   0  0  0  0  0  0  0  0  0  0  0  0
    1.0304    1.8858    0.0008 H   0  0  0  0  0  0  0  0  0  0  0  0
   -1.7049    2.4850    0.0006 H   0  0  0  0  0  0  0  0  0  0  0  0
   -3.3779   -1.3679   -0.0009 H   0  0  0  0  0  0  0  0  0  0  0  0
   -0.7211   -2.7995   -0.0006 H   0  0  0  0  0  0  0  0  0  0  0  0
   -3.9066    1.2992   -0.0003 H   0  0  0  0  0  0  0  0  0  0  0  0
    1.7072   -2.3879    0.0002 H   0  0  0  0  0  0  0  0  0  0  0  0
    3.5809   -0.9275    0.0001 H   0  0  0  0  0  0  0  0  0  0  0  0
  1 11  2  0  0  0  0
  2  3  1  0  0  0  0
  2  9  1  0  0  0  0
  2 13  1  0  0  0  0
  3  4  2  0  0  0  0
  3  5  1  0  0  0  0
  4  6  1  0  0  0  0
  4  7  1  0  0  0  0
  5  8  2  0  0  0  0
  5 12  1  0  0  0  0
  6  9  2  0  0  0  0
  6 14  1  0  0  0  0
  7 10  2  0  0  0  0
  7 15  1  0  0  0  0
  8 10  1  0  0  0  0
  8 11  1  0  0  0  0
  9 16  1  0  0  0  0
 10 17  1  0  0  0  0
 11 18  1  0  0  0  0
M  END
> <PUBCHEM_COMPOUND_CID>
2773435

> <PUBCHEM_CONFORMER_RMSD>
0.4

> <PUBCHEM_CONFORMER_DIVERSEORDER>
1
2

> <PUBCHEM_MMFF94_PARTIAL_CHARGES>
17
1 -0.57
10 -0.15
11 0.42
12 0.15
13 0.27
14 0.15
15 0.15
16 0.15
17 0.15
18 0.06
2 0.03
3 -0.15
5 -0.15
6 -0.15
7 -0.15
8 0.09
9 -0.3

> <PUBCHEM_EFFECTIVE_ROTOR_COUNT>
1

> <PUBCHEM_PHARMACOPHORE_FEATURES>
5
1 1 acceptor
1 2 cation
1 2 donor
5 2 3 4 6 9 rings
6 3 4 5 7 8 10 rings

> <PUBCHEM_HEAVY_ATOM_COUNT>
11

> <PUBCHEM_ATOM_DEF_STEREO_COUNT>
0

> <PUBCHEM_ATOM_UDEF_STEREO_COUNT>
0

> <PUBCHEM_BOND_DEF_STEREO_COUNT>
0

> <PUBCHEM_BOND_UDEF_STEREO_COUNT>
0

> <PUBCHEM_ISOTOPIC_ATOM_COUNT>
0

> <PUBCHEM_COMPONENT_COUNT>
1

> <PUBCHEM_CACTVS_TAUTO_COUNT>
4

> <PUBCHEM_CONFORMER_ID>
002A51BB00000001

> <PUBCHEM_MMFF94_ENERGY>
19.2546

> <PUBCHEM_FEATURE_SELFOVERLAP>
25.463

> <PUBCHEM_SHAPE_FINGERPRINT>
12897270 3 18411699855035753285
13024252 1 12757420674696767087
13380535 76 18410290302561979090
14325111 11 18410573972430164000
15775835 57 18413392020653045705
16945 1 18410855481719198727
193761 8 17618222806305935172
20871998 184 18128261283781510239
21040471 1 18410856551081743842
23235685 24 18409725162190677793
23402655 69 18269258077394323861
23463225 33 18262513693979717066
23552423 10 18192150395551721291
23559900 14 18272937142301140628
2748010 2 18265617580596972319
369184 2 16443060599467124193
5084963 1 18202283632051667971
528886 8 18410849954159456043
53812653 166 18343298171525362824
6333449 129 18341891947729850878
7364860 26 18197777691973628326

> <PUBCHEM_SHAPE_MULTIPOLES>
215.52
4.59
1.61
0.6
1.57
0.36
0
-1.51
0
-0.07
0
-0.02
0.02
0

> <PUBCHEM_SHAPE_SELFOVERLAP>
475.661

> <PUBCHEM_SHAPE_VOLUME>
117.1

> <PUBCHEM_COORDINATE_TYPE>
2
5
10

$$$$
