44428630
  -OEChem-02202223503D

 66 68  0     1  0  0  0  0  0999 V2000
   -0.2578    0.5462    0.8227 O   0  0  0  0  0  0  0  0  0  0  0  0
    1.6547   -1.0560   -2.6247 O   0  0  0  0  0  0  0  0  0  0  0  0
   -0.1981    3.3681    1.4513 O   0  0  0  0  0  0  0  0  0  0  0  0
   -4.2351   -2.0525    0.9438 O   0  0  0  0  0  0  0  0  0  0  0  0
   -4.4651    2.3405   -0.8157 O   0  0  0  0  0  0  0  0  0  0  0  0
   -2.2792    3.7478   -0.7654 O   0  0  0  0  0  0  0  0  0  0  0  0
    2.5252    2.0043   -1.8885 O   0  0  0  0  0  0  0  0  0  0  0  0
    5.9075    1.6152    1.4460 O   0  0  0  0  0  0  0  0  0  0  0  0
   -0.8462   -2.8480    0.4776 C   0  0  2  0  0  0  0  0  0  0  0  0
    0.3786   -2.1894   -0.2040 C   0  0  0  0  0  0  0  0  0  0  0  0
   -1.4546   -1.8641    1.5077 C   0  0  0  0  0  0  0  0  0  0  0  0
    0.9119   -2.9968   -1.4001 C   0  0  0  0  0  0  0  0  0  0  0  0
    2.0875   -2.3306   -2.1450 C   0  0  0  0  0  0  0  0  0  0  0  0
   -2.2349   -0.7312    0.8829 C   0  0  0  0  0  0  0  0  0  0  0  0
   -1.5981    0.4641    0.5465 C   0  0  0  0  0  0  0  0  0  0  0  0
   -0.5254   -4.2071    1.0941 C   0  0  0  0  0  0  0  0  0  0  0  0
    0.4271    1.5090    0.0057 C   0  0  1  0  0  0  0  0  0  0  0  0
   -2.3361    1.5109   -0.0135 C   0  0  0  0  0  0  0  0  0  0  0  0
   -0.2150    2.8947    0.1149 C   0  0  1  0  0  0  0  0  0  0  0  0
   -3.5978   -0.8892    0.6301 C   0  0  0  0  0  0  0  0  0  0  0  0
   -1.6663    2.7996   -0.2885 C   0  0  0  0  0  0  0  0  0  0  0  0
    2.4751   -3.1823   -3.3585 C   0  0  0  0  0  0  0  0  0  0  0  0
    3.3058   -2.1219   -1.2428 C   0  0  0  0  0  0  0  0  0  0  0  0
   -3.7007    1.3542   -0.2689 C   0  0  0  0  0  0  0  0  0  0  0  0
    1.8974    1.5398    0.3776 C   0  0  0  0  0  0  0  0  0  0  0  0
    0.4830   -4.2743    2.2081 C   0  0  0  0  0  0  0  0  0  0  0  0
   -4.3276    0.1495    0.0512 C   0  0  0  0  0  0  0  0  0  0  0  0
   -1.1282   -5.3233    0.6513 C   0  0  0  0  0  0  0  0  0  0  0  0
    2.8722    1.7862   -0.5891 C   0  0  0  0  0  0  0  0  0  0  0  0
    2.2704    1.3184    1.7034 C   0  0  0  0  0  0  0  0  0  0  0  0
    4.2199    1.8117   -0.2302 C   0  0  0  0  0  0  0  0  0  0  0  0
    3.6179    1.3438    2.0625 C   0  0  0  0  0  0  0  0  0  0  0  0
    4.5927    1.5904    1.0957 C   0  0  0  0  0  0  0  0  0  0  0  0
   -4.5608    2.3723   -2.2383 C   0  0  0  0  0  0  0  0  0  0  0  0
   -1.5997   -3.0045   -0.3085 H   0  0  0  0  0  0  0  0  0  0  0  0
    1.1684   -2.0022    0.5301 H   0  0  0  0  0  0  0  0  0  0  0  0
    0.0802   -1.2333   -0.6288 H   0  0  0  0  0  0  0  0  0  0  0  0
   -0.6725   -1.4657    2.1678 H   0  0  0  0  0  0  0  0  0  0  0  0
   -2.1203   -2.4108    2.1900 H   0  0  0  0  0  0  0  0  0  0  0  0
    1.2229   -3.9932   -1.0637 H   0  0  0  0  0  0  0  0  0  0  0  0
    0.0812   -3.1395   -2.1042 H   0  0  0  0  0  0  0  0  0  0  0  0
    0.3482    1.1482   -1.0302 H   0  0  0  0  0  0  0  0  0  0  0  0
    0.2999    3.6122   -0.5337 H   0  0  0  0  0  0  0  0  0  0  0  0
    1.6281   -3.2899   -4.0457 H   0  0  0  0  0  0  0  0  0  0  0  0
    2.8104   -4.1808   -3.0597 H   0  0  0  0  0  0  0  0  0  0  0  0
    3.2777   -2.7048   -3.9322 H   0  0  0  0  0  0  0  0  0  0  0  0
    3.0965   -1.4078   -0.4410 H   0  0  0  0  0  0  0  0  0  0  0  0
    3.6404   -3.0634   -0.7955 H   0  0  0  0  0  0  0  0  0  0  0  0
    4.1412   -1.6958   -1.8108 H   0  0  0  0  0  0  0  0  0  0  0  0
    1.4636   -3.9327    1.8636 H   0  0  0  0  0  0  0  0  0  0  0  0
    0.1708   -3.6495    3.0503 H   0  0  0  0  0  0  0  0  0  0  0  0
    0.6080   -5.2942    2.5879 H   0  0  0  0  0  0  0  0  0  0  0  0
   -5.3906    0.0283   -0.1451 H   0  0  0  0  0  0  0  0  0  0  0  0
    2.4019   -0.6377   -3.0855 H   0  0  0  0  0  0  0  0  0  0  0  0
   -1.8568   -5.2932   -0.1520 H   0  0  0  0  0  0  0  0  0  0  0  0
   -0.9068   -6.2946    1.0811 H   0  0  0  0  0  0  0  0  0  0  0  0
    1.5304    1.1330    2.4771 H   0  0  0  0  0  0  0  0  0  0  0  0
   -0.5285    4.2828    1.4431 H   0  0  0  0  0  0  0  0  0  0  0  0
   -5.1727   -1.9785    0.6963 H   0  0  0  0  0  0  0  0  0  0  0  0
    4.9806    2.0031   -0.9831 H   0  0  0  0  0  0  0  0  0  0  0  0
    3.9021    1.1725    3.0971 H   0  0  0  0  0  0  0  0  0  0  0  0
   -5.0384    3.3119   -2.5290 H   0  0  0  0  0  0  0  0  0  0  0  0
   -5.1808    1.5415   -2.5892 H   0  0  0  0  0  0  0  0  0  0  0  0
   -3.5729    2.3210   -2.7073 H   0  0  0  0  0  0  0  0  0  0  0  0
    3.3312    2.1507   -2.4127 H   0  0  0  0  0  0  0  0  0  0  0  0
    6.4418    1.7984    0.6541 H   0  0  0  0  0  0  0  0  0  0  0  0
  1 15  1  0  0  0  0
  1 17  1  0  0  0  0
  2 13  1  0  0  0  0
  2 54  1  0  0  0  0
  3 19  1  0  0  0  0
  3 58  1  0  0  0  0
  4 20  1  0  0  0  0
  4 59  1  0  0  0  0
  5 24  1  0  0  0  0
  5 34  1  0  0  0  0
  6 21  2  0  0  0  0
  7 29  1  0  0  0  0
  7 65  1  0  0  0  0
  8 33  1  0  0  0  0
  8 66  1  0  0  0  0
  9 10  1  0  0  0  0
  9 11  1  0  0  0  0
  9 16  1  0  0  0  0
  9 35  1  0  0  0  0
 10 12  1  0  0  0  0
 10 36  1  0  0  0  0
 10 37  1  0  0  0  0
 11 14  1  0  0  0  0
 11 38  1  0  0  0  0
 11 39  1  0  0  0  0
 12 13  1  0  0  0  0
 12 40  1  0  0  0  0
 12 41  1  0  0  0  0
 13 22  1  0  0  0  0
 13 23  1  0  0  0  0
 14 15  2  0  0  0  0
 14 20  1  0  0  0  0
 15 18  1  0  0  0  0
 16 26  1  0  0  0  0
 16 28  2  0  0  0  0
 17 19  1  0  0  0  0
 17 25  1  0  0  0  0
 17 42  1  0  0  0  0
 18 21  1  0  0  0  0
 18 24  2  0  0  0  0
 19 21  1  0  0  0  0
 19 43  1  0  0  0  0
 20 27  2  0  0  0  0
 22 44  1  0  0  0  0
 22 45  1  0  0  0  0
 22 46  1  0  0  0  0
 23 47  1  0  0  0  0
 23 48  1  0  0  0  0
 23 49  1  0  0  0  0
 24 27  1  0  0  0  0
 25 29  2  0  0  0  0
 25 30  1  0  0  0  0
 26 50  1  0  0  0  0
 26 51  1  0  0  0  0
 26 52  1  0  0  0  0
 27 53  1  0  0  0  0
 28 55  1  0  0  0  0
 28 56  1  0  0  0  0
 29 31  1  0  0  0  0
 30 32  2  0  0  0  0
 30 57  1  0  0  0  0
 31 33  2  0  0  0  0
 31 60  1  0  0  0  0
 32 33  1  0  0  0  0
 32 61  1  0  0  0  0
 34 62  1  0  0  0  0
 34 63  1  0  0  0  0
 34 64  1  0  0  0  0
M  END
> <PUBCHEM_COMPOUND_CID>
44428630

> <PUBCHEM_CONFORMER_RMSD>
1

> <PUBCHEM_CONFORMER_DIVERSEORDER>
2
145
113
116
147
101
125
35
128
1
84
86
51
6
68
85
142
148
3
20
96
38
70
89
80
40
50
83
10
73
93
59
143
114
119
48
72
121
53
87
153
32
136
14
65
149
24
47
55
75
157
56
135
67
138
49
98
22
100
28
19
124
120
66
25
34
42
57
115
43
132
108
118
60
133
97
107
105
63
134
30
126
16
99
129
123
127
88
146
122
110
71
69
13
18
37
26
150
90
39
95
144
8
41
112
139
103
12
104
154
156
79
141
62
109
137
106
54
61
44
130
151
58
15
17
140
82
4
91
52
77
81
9
131
152
29
36
64
46
5
111
27
155
92
78
21
23
76
117
94
11
74
45
102
7
31
33

> <PUBCHEM_MMFF94_PARTIAL_CHARGES>
41
1 -0.36
11 0.14
13 0.28
14 -0.14
15 0.08
16 -0.28
17 0.42
18 0.09
19 0.34
2 -0.68
20 0.08
21 0.42
24 0.08
25 -0.14
26 0.14
27 -0.15
28 -0.3
29 0.08
3 -0.68
30 -0.15
31 -0.15
32 -0.15
33 0.08
34 0.28
4 -0.53
5 -0.36
53 0.15
54 0.4
55 0.15
56 0.15
57 0.15
58 0.4
59 0.45
6 -0.57
60 0.15
61 0.15
65 0.45
66 0.45
7 -0.53
8 -0.53
9 0.14

> <PUBCHEM_EFFECTIVE_ROTOR_COUNT>
8.6

> <PUBCHEM_PHARMACOPHORE_FEATURES>
15
1 1 acceptor
1 2 acceptor
1 2 donor
1 3 acceptor
1 3 donor
1 4 donor
1 5 acceptor
1 6 acceptor
1 7 donor
1 8 donor
3 13 22 23 hydrophobe
5 9 10 11 12 16 hydrophobe
6 1 15 17 18 19 21 rings
6 14 15 18 20 24 27 rings
6 25 29 30 31 32 33 rings

> <PUBCHEM_HEAVY_ATOM_COUNT>
34

> <PUBCHEM_ATOM_DEF_STEREO_COUNT>
3

> <PUBCHEM_ATOM_UDEF_STEREO_COUNT>
0

> <PUBCHEM_BOND_DEF_STEREO_COUNT>
0

> <PUBCHEM_BOND_UDEF_STEREO_COUNT>
0

> <PUBCHEM_ISOTOPIC_ATOM_COUNT>
0

> <PUBCHEM_COMPONENT_COUNT>
1

> <PUBCHEM_CACTVS_TAUTO_COUNT>
796

> <PUBCHEM_CONFORMER_ID>
02A5ED5600000002

> <PUBCHEM_MMFF94_ENERGY>
104.0023

> <PUBCHEM_FEATURE_SELFOVERLAP>
76.168

> <PUBCHEM_SHAPE_FINGERPRINT>
1100329 8 17042031374734166617
11524674 6 17775278418076898000
12597179 24 18341887493864563356
13009979 54 16461651911159643483
13140716 1 18339652118274811315
13402501 40 18343032107286903366
13642711 20 18192415403739805959
13726171 33 17472176184211966737
14114207 22 17535431921739823922
14725015 67 18337685095935968530
15439362 3 17757813551347601389
16728300 4 17605526969121367203
17974551 9 16907001704045206250
20028762 73 17699006503159875399
20642791 35 18126013654939803281
20764821 26 18335428928314083967
20775438 99 18200010873568388079
22033318 11 16893745176688326715
22182313 1 18409740538785455857
23559900 14 18338807701903439548
23598288 3 18048303737927333728
238918 7 18201159961612952486
3298306 158 18413386561670406660
469060 322 14871687123213631278
508706 21 18267312112920956862
57527358 35 15214146461008964487
66674814 147 17053840606109762751
6669772 16 18338223873950279711
70251023 43 17700693952754682189
9981440 41 18260822683877491393

> <PUBCHEM_SHAPE_MULTIPOLES>
652.75
8.18
6.43
2.37
1.08
6.56
1.47
-6.43
0.3
-0.69
-0.5
1.93
1.61
4.04

> <PUBCHEM_SHAPE_SELFOVERLAP>
1392.272

> <PUBCHEM_SHAPE_VOLUME>
362.4

> <PUBCHEM_COORDINATE_TYPE>
2
5
10

$$$$
