101289537
  -OEChem-01132213473D

 52 55  0     1  0  0  0  0  0999 V2000
    1.3433   -0.8199   -0.3795 C   0  0  1  0  0  0  0  0  0  0  0  0
    0.6247    0.5703   -0.5414 C   0  0  1  0  0  0  0  0  0  0  0  0
   -0.7888    0.6810    0.1774 C   0  0  2  0  0  0  0  0  0  0  0  0
   -1.6531   -0.5399   -0.3164 C   0  0  1  0  0  0  0  0  0  0  0  0
    0.3887   -1.9856   -0.6705 C   0  0  0  0  0  0  0  0  0  0  0  0
    2.5232   -0.8557   -1.3813 C   0  0  0  0  0  0  0  0  0  0  0  0
   -0.9648   -1.8768    0.0263 C   0  0  0  0  0  0  0  0  0  0  0  0
    3.5044    0.1263   -0.7477 C   0  0  1  0  0  0  0  0  0  0  0  0
   -3.1878   -0.4919    0.0118 C   0  0  0  0  0  0  0  0  0  0  0  0
    1.5890    1.7555   -0.2756 C   0  0  0  0  0  0  0  0  0  0  0  0
    2.1183   -0.9946    0.9543 C   0  0  0  0  0  0  0  0  0  0  0  0
   -1.4882    1.9930   -0.2809 C   0  0  0  0  0  0  0  0  0  0  0  0
    2.9714    1.5548   -0.9175 C   0  0  0  0  0  0  0  0  0  0  0  0
    3.4400   -0.3127    0.6931 C   0  0  0  0  0  0  0  0  0  0  0  0
   -0.6405    0.7395    1.7161 C   0  0  0  0  0  0  0  0  0  0  0  0
   -3.7579    0.8839   -0.4148 C   0  0  0  0  0  0  0  0  0  0  0  0
   -2.9659    2.0785    0.0988 C   0  0  0  0  0  0  0  0  0  0  0  0
   -3.5329   -0.7849    1.4833 C   0  0  0  0  0  0  0  0  0  0  0  0
   -3.9394   -1.5589   -0.8295 C   0  0  0  0  0  0  0  0  0  0  0  0
    4.4164   -0.1622    1.5940 C   0  0  0  0  0  0  0  0  0  0  0  0
    0.3953    0.6441   -1.6177 H   0  0  0  0  0  0  0  0  0  0  0  0
   -1.6225   -0.4772   -1.4176 H   0  0  0  0  0  0  0  0  0  0  0  0
    0.8544   -2.9425   -0.4035 H   0  0  0  0  0  0  0  0  0  0  0  0
    0.2075   -2.0370   -1.7531 H   0  0  0  0  0  0  0  0  0  0  0  0
    2.2309   -0.5635   -2.3964 H   0  0  0  0  0  0  0  0  0  0  0  0
    2.9624   -1.8611   -1.4424 H   0  0  0  0  0  0  0  0  0  0  0  0
   -1.5702   -2.7226   -0.3139 H   0  0  0  0  0  0  0  0  0  0  0  0
   -0.8426   -2.0080    1.1050 H   0  0  0  0  0  0  0  0  0  0  0  0
    4.5046    0.0246   -1.1803 H   0  0  0  0  0  0  0  0  0  0  0  0
    1.7359    1.9064    0.7978 H   0  0  0  0  0  0  0  0  0  0  0  0
    1.1634    2.6891   -0.6600 H   0  0  0  0  0  0  0  0  0  0  0  0
    2.3009   -2.0555    1.1639 H   0  0  0  0  0  0  0  0  0  0  0  0
    1.6182   -0.5564    1.8160 H   0  0  0  0  0  0  0  0  0  0  0  0
   -1.4121    2.0862   -1.3725 H   0  0  0  0  0  0  0  0  0  0  0  0
   -0.9752    2.8661    0.1403 H   0  0  0  0  0  0  0  0  0  0  0  0
    2.9039    1.7864   -1.9881 H   0  0  0  0  0  0  0  0  0  0  0  0
    3.6753    2.2764   -0.4850 H   0  0  0  0  0  0  0  0  0  0  0  0
    0.1554    1.4206    2.0268 H   0  0  0  0  0  0  0  0  0  0  0  0
   -0.4351   -0.2334    2.1639 H   0  0  0  0  0  0  0  0  0  0  0  0
   -1.5319    1.1230    2.2128 H   0  0  0  0  0  0  0  0  0  0  0  0
   -4.8015    0.9801   -0.0887 H   0  0  0  0  0  0  0  0  0  0  0  0
   -3.7777    0.9422   -1.5120 H   0  0  0  0  0  0  0  0  0  0  0  0
   -3.0876    2.1759    1.1819 H   0  0  0  0  0  0  0  0  0  0  0  0
   -3.3879    2.9952   -0.3312 H   0  0  0  0  0  0  0  0  0  0  0  0
   -3.0818   -1.7215    1.8259 H   0  0  0  0  0  0  0  0  0  0  0  0
   -4.6177   -0.8876    1.6120 H   0  0  0  0  0  0  0  0  0  0  0  0
   -3.2264    0.0075    2.1643 H   0  0  0  0  0  0  0  0  0  0  0  0
   -3.7157   -2.5773   -0.4968 H   0  0  0  0  0  0  0  0  0  0  0  0
   -3.6807   -1.4854   -1.8918 H   0  0  0  0  0  0  0  0  0  0  0  0
   -5.0254   -1.4297   -0.7479 H   0  0  0  0  0  0  0  0  0  0  0  0
    5.3492    0.3247    1.3314 H   0  0  0  0  0  0  0  0  0  0  0  0
    4.2988   -0.5221    2.6103 H   0  0  0  0  0  0  0  0  0  0  0  0
  1  2  1  0  0  0  0
  1  5  1  0  0  0  0
  1  6  1  0  0  0  0
  1 11  1  0  0  0  0
  2  3  1  0  0  0  0
  2 10  1  0  0  0  0
  2 21  1  0  0  0  0
  3  4  1  0  0  0  0
  3 12  1  0  0  0  0
  3 15  1  0  0  0  0
  4  7  1  0  0  0  0
  4  9  1  0  0  0  0
  4 22  1  0  0  0  0
  5  7  1  0  0  0  0
  5 23  1  0  0  0  0
  5 24  1  0  0  0  0
  6  8  1  0  0  0  0
  6 25  1  0  0  0  0
  6 26  1  0  0  0  0
  7 27  1  0  0  0  0
  7 28  1  0  0  0  0
  8 13  1  0  0  0  0
  8 14  1  0  0  0  0
  8 29  1  0  0  0  0
  9 16  1  0  0  0  0
  9 18  1  0  0  0  0
  9 19  1  0  0  0  0
 10 13  1  0  0  0  0
 10 30  1  0  0  0  0
 10 31  1  0  0  0  0
 11 14  1  0  0  0  0
 11 32  1  0  0  0  0
 11 33  1  0  0  0  0
 12 17  1  0  0  0  0
 12 34  1  0  0  0  0
 12 35  1  0  0  0  0
 13 36  1  0  0  0  0
 13 37  1  0  0  0  0
 14 20  2  0  0  0  0
 15 38  1  0  0  0  0
 15 39  1  0  0  0  0
 15 40  1  0  0  0  0
 16 17  1  0  0  0  0
 16 41  1  0  0  0  0
 16 42  1  0  0  0  0
 17 43  1  0  0  0  0
 17 44  1  0  0  0  0
 18 45  1  0  0  0  0
 18 46  1  0  0  0  0
 18 47  1  0  0  0  0
 19 48  1  0  0  0  0
 19 49  1  0  0  0  0
 19 50  1  0  0  0  0
 20 51  1  0  0  0  0
 20 52  1  0  0  0  0
M  END
> <PUBCHEM_COMPOUND_CID>
101289537

> <PUBCHEM_CONFORMER_RMSD>
0.6

> <PUBCHEM_CONFORMER_DIVERSEORDER>
1

> <PUBCHEM_MMFF94_PARTIAL_CHARGES>
6
11 0.14
14 -0.28
20 -0.3
51 0.15
52 0.15
8 0.14

> <PUBCHEM_EFFECTIVE_ROTOR_COUNT>
2

> <PUBCHEM_PHARMACOPHORE_FEATURES>
4
3 9 18 19 hydrophobe
6 1 2 3 4 5 7 rings
6 3 4 9 12 16 17 rings
8 1 2 6 8 10 11 13 14 rings

> <PUBCHEM_HEAVY_ATOM_COUNT>
20

> <PUBCHEM_ATOM_DEF_STEREO_COUNT>
5

> <PUBCHEM_ATOM_UDEF_STEREO_COUNT>
0

> <PUBCHEM_BOND_DEF_STEREO_COUNT>
0

> <PUBCHEM_BOND_UDEF_STEREO_COUNT>
0

> <PUBCHEM_ISOTOPIC_ATOM_COUNT>
0

> <PUBCHEM_COMPONENT_COUNT>
1

> <PUBCHEM_CACTVS_TAUTO_COUNT>
1

> <PUBCHEM_CONFORMER_ID>
06098E4100000001

> <PUBCHEM_MMFF94_ENERGY>
83.1467

> <PUBCHEM_FEATURE_SELFOVERLAP>
20.325

> <PUBCHEM_SHAPE_FINGERPRINT>
10062212 137 18261387832585018865
10646746 165 18342453699651296608
10759866 29 17968386735836730764
10863032 1 18128532674063830538
10967382 1 18266746968101603413
11132069 177 18202001031893888871
11578080 2 17917413368268237769
12236239 1 17967250897713188054
12251169 10 18334569149187059602
12403260 363 18409719690481490141
12403814 3 18409733976149280585
12553582 1 18340496663469295367
12592029 89 18261680276950466859
13134695 92 16443063885623566948
13140716 1 18195247947345520227
13221675 6 18410299133025022991
13224815 77 18131634482375785423
13296908 3 18272377425260477807
13538477 17 18188208827002716654
13581323 91 18410008849276083990
13583140 156 17240761847485747455
14178342 30 18196091049383403544
14289901 80 18413393120169954635
14787075 74 17630871888761740330
15196674 1 18410577292292191036
15309172 13 18343029886625462863
16752209 62 18411982459615353623
16945 1 18410859875375946559
17349148 13 18412819200965167454
17492 89 18335420132301099171
18186145 218 17774734085999739398
19050596 39 18186522081354434089
192875 21 18334847338054879020
200 152 18113612400212093363
20510252 161 18202004317433094281
20559304 39 18333450937345653262
20715895 44 18045770196712446117
21069387 34 16732986409722091194
21267235 1 18335993024823573071
21501502 16 18334297560798160341
22854114 111 17968095352117208476
2334 1 17835524095335040559
23402539 116 18339347626215037158
23419403 2 16619487282025261132
23463225 33 18334012770143328100
23493267 7 18188221926278377811
23557571 272 17989483030583401067
23559900 14 18200879448814281486
2748010 2 18124602985331063486
296302 2 17022911159162132148
3286 77 17531242889643042898
474 4 17097505438622316284
5104073 3 18334016102906477905
7097593 13 17751068120567351002
90525 40 18410859853969506591
9709674 26 18411426115258635415
9981440 41 17248929187815072032

> <PUBCHEM_SHAPE_MULTIPOLES>
411.59
7.42
2.09
1.34
0.11
0.32
0.43
-0.25
0.8
-0.98
-0.36
0.57
-0.14
-0.3

> <PUBCHEM_SHAPE_SELFOVERLAP>
876.834

> <PUBCHEM_SHAPE_VOLUME>
225.8

> <PUBCHEM_COORDINATE_TYPE>
2
5
10

$$$$
