101883476
  -OEChem-02212200223D

 58 58  0     1  0  0  0  0  0999 V2000
   -3.9413   -0.7741   -1.4524 O   0  0  0  0  0  0  0  0  0  0  0  0
    1.5134    0.8577   -1.1925 O   0  0  0  0  0  0  0  0  0  0  0  0
   -0.4386   -3.4666    1.4249 O   0  0  0  0  0  0  0  0  0  0  0  0
    1.8537   -0.8694   -2.7445 O   0  0  0  0  0  0  0  0  0  0  0  0
    4.4927   -0.5006    1.1571 O   0  0  0  0  0  0  0  0  0  0  0  0
   -3.7771    1.2307   -0.1518 C   0  0  0  0  0  0  0  0  0  0  0  0
   -3.0698   -0.0709   -0.5613 C   0  0  1  0  0  0  0  0  0  0  0  0
   -2.9524    2.0892    0.8117 C   0  0  0  0  0  0  0  0  0  0  0  0
   -2.7033   -0.9733    0.6033 C   0  0  0  0  0  0  0  0  0  0  0  0
   -1.6374    2.5209    0.2025 C   0  0  0  0  0  0  0  0  0  0  0  0
   -0.4298    2.2618    0.7412 C   0  0  0  0  0  0  0  0  0  0  0  0
    0.9111    2.6838    0.2147 C   0  0  0  0  0  0  0  0  0  0  0  0
   -1.4538   -1.3996    0.8797 C   0  0  0  0  0  0  0  0  0  0  0  0
   -3.8433   -1.4032    1.4960 C   0  0  0  0  0  0  0  0  0  0  0  0
   -1.7487    3.3170   -1.0713 C   0  0  0  0  0  0  0  0  0  0  0  0
    1.8137    1.5188   -0.0135 C   0  0  0  0  0  0  0  0  0  0  0  0
   -0.9948   -2.2865    2.0025 C   0  0  2  0  0  0  0  0  0  0  0  0
    2.7893    1.1209    0.8242 C   0  0  0  0  0  0  0  0  0  0  0  0
   -3.2123   -1.6474   -2.2983 C   0  0  0  0  0  0  0  0  0  0  0  0
    3.5825   -0.0856    0.4447 C   0  0  0  0  0  0  0  0  0  0  0  0
    0.0737   -1.5952    2.8411 C   0  0  0  0  0  0  0  0  0  0  0  0
    3.2270   -0.7752   -0.8252 C   0  0  0  0  0  0  0  0  0  0  0  0
    2.2239   -0.2671   -1.5583 C   0  0  0  0  0  0  0  0  0  0  0  0
    3.1936    1.7926    2.1031 C   0  0  0  0  0  0  0  0  0  0  0  0
    4.0246   -1.9923   -1.1836 C   0  0  0  0  0  0  0  0  0  0  0  0
    0.5036   -1.2866   -2.6943 C   0  0  0  0  0  0  0  0  0  0  0  0
   -4.0390    1.7960   -1.0555 H   0  0  0  0  0  0  0  0  0  0  0  0
   -4.7433    1.0007    0.3162 H   0  0  0  0  0  0  0  0  0  0  0  0
   -2.1633    0.2046   -1.1156 H   0  0  0  0  0  0  0  0  0  0  0  0
   -2.7877    1.5560    1.7551 H   0  0  0  0  0  0  0  0  0  0  0  0
   -3.5292    2.9859    1.0708 H   0  0  0  0  0  0  0  0  0  0  0  0
   -0.4060    1.7067    1.6784 H   0  0  0  0  0  0  0  0  0  0  0  0
    0.8409    3.2320   -0.7299 H   0  0  0  0  0  0  0  0  0  0  0  0
    1.3407    3.4064    0.9154 H   0  0  0  0  0  0  0  0  0  0  0  0
   -0.6608   -1.0682    0.2106 H   0  0  0  0  0  0  0  0  0  0  0  0
   -3.9317   -0.7295    2.3540 H   0  0  0  0  0  0  0  0  0  0  0  0
   -3.7371   -2.4313    1.8530 H   0  0  0  0  0  0  0  0  0  0  0  0
   -4.7949   -1.3824    0.9538 H   0  0  0  0  0  0  0  0  0  0  0  0
   -1.6914    2.6576   -1.9429 H   0  0  0  0  0  0  0  0  0  0  0  0
   -2.7065    3.8486   -1.1104 H   0  0  0  0  0  0  0  0  0  0  0  0
   -0.9865    4.0956   -1.1592 H   0  0  0  0  0  0  0  0  0  0  0  0
   -1.8096   -2.5949    2.6612 H   0  0  0  0  0  0  0  0  0  0  0  0
   -3.9284   -2.1814   -2.9295 H   0  0  0  0  0  0  0  0  0  0  0  0
   -2.6466   -2.3903   -1.7290 H   0  0  0  0  0  0  0  0  0  0  0  0
   -2.5461   -1.0797   -2.9543 H   0  0  0  0  0  0  0  0  0  0  0  0
    0.9579   -1.3555    2.2392 H   0  0  0  0  0  0  0  0  0  0  0  0
    0.4155   -2.2570    3.6446 H   0  0  0  0  0  0  0  0  0  0  0  0
   -0.3048   -0.6715    3.2905 H   0  0  0  0  0  0  0  0  0  0  0  0
    3.2417    1.0602    2.9167 H   0  0  0  0  0  0  0  0  0  0  0  0
    2.4983    2.5683    2.4302 H   0  0  0  0  0  0  0  0  0  0  0  0
    4.1822    2.2501    1.9932 H   0  0  0  0  0  0  0  0  0  0  0  0
   -0.1282   -4.0316    2.1530 H   0  0  0  0  0  0  0  0  0  0  0  0
    5.0848   -1.7369   -1.2825 H   0  0  0  0  0  0  0  0  0  0  0  0
    3.7056   -2.4420   -2.1288 H   0  0  0  0  0  0  0  0  0  0  0  0
    3.9224   -2.7560   -0.4055 H   0  0  0  0  0  0  0  0  0  0  0  0
    0.2758   -1.8150   -3.6249 H   0  0  0  0  0  0  0  0  0  0  0  0
   -0.1745   -0.4300   -2.6227 H   0  0  0  0  0  0  0  0  0  0  0  0
    0.3332   -1.9809   -1.8644 H   0  0  0  0  0  0  0  0  0  0  0  0
  1  7  1  0  0  0  0
  1 19  1  0  0  0  0
  2 16  1  0  0  0  0
  2 23  1  0  0  0  0
  3 17  1  0  0  0  0
  3 52  1  0  0  0  0
  4 23  1  0  0  0  0
  4 26  1  0  0  0  0
  5 20  2  0  0  0  0
  6  7  1  0  0  0  0
  6  8  1  0  0  0  0
  6 27  1  0  0  0  0
  6 28  1  0  0  0  0
  7  9  1  0  0  0  0
  7 29  1  0  0  0  0
  8 10  1  0  0  0  0
  8 30  1  0  0  0  0
  8 31  1  0  0  0  0
  9 13  2  0  0  0  0
  9 14  1  0  0  0  0
 10 11  2  0  0  0  0
 10 15  1  0  0  0  0
 11 12  1  0  0  0  0
 11 32  1  0  0  0  0
 12 16  1  0  0  0  0
 12 33  1  0  0  0  0
 12 34  1  0  0  0  0
 13 17  1  0  0  0  0
 13 35  1  0  0  0  0
 14 36  1  0  0  0  0
 14 37  1  0  0  0  0
 14 38  1  0  0  0  0
 15 39  1  0  0  0  0
 15 40  1  0  0  0  0
 15 41  1  0  0  0  0
 16 18  2  0  0  0  0
 17 21  1  0  0  0  0
 17 42  1  0  0  0  0
 18 20  1  0  0  0  0
 18 24  1  0  0  0  0
 19 43  1  0  0  0  0
 19 44  1  0  0  0  0
 19 45  1  0  0  0  0
 20 22  1  0  0  0  0
 21 46  1  0  0  0  0
 21 47  1  0  0  0  0
 21 48  1  0  0  0  0
 22 23  2  0  0  0  0
 22 25  1  0  0  0  0
 24 49  1  0  0  0  0
 24 50  1  0  0  0  0
 24 51  1  0  0  0  0
 25 53  1  0  0  0  0
 25 54  1  0  0  0  0
 25 55  1  0  0  0  0
 26 56  1  0  0  0  0
 26 57  1  0  0  0  0
 26 58  1  0  0  0  0
M  END
> <PUBCHEM_COMPOUND_CID>
101883476

> <PUBCHEM_CONFORMER_RMSD>
1

> <PUBCHEM_CONFORMER_DIVERSEORDER>
1
15
8
110
73
199
230
242
57
14
221
154
205
83
254
157
275
195
50
233
21
202
255
194
179
241
44
42
82
61
249
88
240
7
140
159
204
53
248
287
165
173
144
55
52
75
245
39
119
174
185
67
51
279
267
114
128
25
272
70
167
2
125
146
208
176
256
212
164
27
271
151
62
134
19
182
38
178
59
232
156
200
143
22
102
285
224
206
77
189
69
216
93
121
291
131
253
141
139
246
17
30
49
80
219
282
129
168
214
31
160
223
56
251
190
172
211
142
135
47
181
265
111
20
227
58
9
192
81
220
65
5
158
130
260
89
29
35
126
252
86
222
217
6
12
244
228
289
213
63
274
26
24
210
231
76
237
48
37
180
94
90
43
123
116
66
78
175
280
163
183
281
103
71
40
106
269
247
243
45
169
283
196
60
118
277
188
33
262
258
16
152
99
96
23
13
4
68
257
229
72
286
259
153
290
276
87
41
198
32
127
11
186
98
145
115
46
288
101
104
226
162
54
113
133
239
97
117
120
147
132
273
238
95
36
197
209
136
91
235
161
193
85
203
155
124
191
215
170
108
171
218
166
64
201
105
261
264
28
225
34
84
138
278
79
112
284
177
92
184
149
137
100
270
266
207
18
148
10
234
250
236
150
263
107
268
122
109
74
3
187

> <PUBCHEM_MMFF94_PARTIAL_CHARGES>
27
1 -0.56
10 -0.28
11 -0.29
12 0.28
13 -0.29
14 0.14
15 0.14
16 -0.06
17 0.42
18 -0.12
19 0.28
2 -0.15
20 0.54
22 -0.12
23 0.15
24 0.14
25 0.14
26 0.28
3 -0.68
32 0.15
35 0.15
4 -0.36
5 -0.57
52 0.4
7 0.42
8 0.14
9 -0.28

> <PUBCHEM_EFFECTIVE_ROTOR_COUNT>
9

> <PUBCHEM_PHARMACOPHORE_FEATURES>
9
1 1 acceptor
1 14 hydrophobe
1 15 hydrophobe
1 2 acceptor
1 3 acceptor
1 3 donor
1 4 acceptor
1 5 acceptor
6 2 16 18 20 22 23 rings

> <PUBCHEM_HEAVY_ATOM_COUNT>
26

> <PUBCHEM_ATOM_DEF_STEREO_COUNT>
0

> <PUBCHEM_ATOM_UDEF_STEREO_COUNT>
2

> <PUBCHEM_BOND_DEF_STEREO_COUNT>
2

> <PUBCHEM_BOND_UDEF_STEREO_COUNT>
0

> <PUBCHEM_ISOTOPIC_ATOM_COUNT>
0

> <PUBCHEM_COMPONENT_COUNT>
1

> <PUBCHEM_CACTVS_TAUTO_COUNT>
4

> <PUBCHEM_CONFORMER_ID>
06129E5400000001

> <PUBCHEM_MMFF94_ENERGY>
47.5137

> <PUBCHEM_FEATURE_SELFOVERLAP>
45.714

> <PUBCHEM_SHAPE_FINGERPRINT>
10366900 7 18342738572147514040
11578080 2 16662309918337735140
11582403 64 17045633576405601504
11828532 37 17248629004203880875
12156800 1 16477614925786974183
12363563 72 18337678610740625129
12422481 6 17698767742017272865
12553582 1 18195253449393941417
14251757 17 17843688755076199120
15415430 2 18335714827154764281
18336668 15 17318442090996885722
20397935 3 18043271204023302780
20600515 1 18186799222656850396
20905425 154 17834116346789137509
23559900 14 18411423873855548892
35225 105 18188505574719251255
3797600 57 14907055074588311912
469060 322 16978702240404167270
539174 4 17387692704641771411
9709674 26 18413670231523443096

> <PUBCHEM_SHAPE_MULTIPOLES>
505.72
7.53
3.62
2.67
1.36
1.13
-0.29
-1.34
-0.45
-1.31
0.66
0.25
-1.92
1.34

> <PUBCHEM_SHAPE_SELFOVERLAP>
1011.38

> <PUBCHEM_SHAPE_VOLUME>
299.1

> <PUBCHEM_COORDINATE_TYPE>
2
5
10

$$$$
