11273547
  -OEChem-02212201583D

101103  0     1  0  0  0  0  0999 V2000
  -11.1020   -0.6157   -0.5066 O   0  0  0  0  0  0  0  0  0  0  0  0
  -12.0743    2.6492   -3.1360 O   0  0  0  0  0  0  0  0  0  0  0  0
   -8.6599   -2.0100    0.7304 O   0  0  0  0  0  0  0  0  0  0  0  0
   11.3613    1.0451    2.0799 O   0  0  0  0  0  0  0  0  0  0  0  0
   11.4994    4.6512   -0.2553 O   0  0  0  0  0  0  0  0  0  0  0  0
  -10.3108    0.4469    0.0661 C   0  0  2  0  0  0  0  0  0  0  0  0
  -11.8117    0.5400   -0.0630 C   0  0  1  0  0  0  0  0  0  0  0  0
   -9.3863    1.1543   -0.9097 C   0  0  0  0  0  0  0  0  0  0  0  0
  -12.4459    1.3433   -1.1473 C   0  0  0  0  0  0  0  0  0  0  0  0
  -10.1597    2.1836   -1.7704 C   0  0  0  0  0  0  0  0  0  0  0  0
  -11.4921    1.6517   -2.3014 C   0  0  2  0  0  0  0  0  0  0  0  0
   -9.7343    0.0506    1.3825 C   0  0  0  0  0  0  0  0  0  0  0  0
  -12.6736    0.2502    1.1223 C   0  0  0  0  0  0  0  0  0  0  0  0
   -8.3062    1.9169   -0.1140 C   0  0  0  0  0  0  0  0  0  0  0  0
   -8.6693    0.1289   -1.8093 C   0  0  0  0  0  0  0  0  0  0  0  0
   -8.5620   -0.9047    1.2602 C   0  0  0  0  0  0  0  0  0  0  0  0
   -7.2501   -0.4365    1.8158 C   0  0  0  0  0  0  0  0  0  0  0  0
   -7.3084    0.5306    2.9572 C   0  0  0  0  0  0  0  0  0  0  0  0
   -6.1572   -0.9209    1.1997 C   0  0  0  0  0  0  0  0  0  0  0  0
   -4.7814   -0.6280    1.5467 C   0  0  0  0  0  0  0  0  0  0  0  0
    9.1416    1.6822   -0.0648 C   0  0  0  0  0  0  0  0  0  0  0  0
   11.5685    0.9771    0.6643 C   0  0  2  0  0  0  0  0  0  0  0  0
    9.7514    3.0361   -0.4988 C   0  0  0  0  0  0  0  0  0  0  0  0
   -3.7375   -1.1515    0.8826 C   0  0  0  0  0  0  0  0  0  0  0  0
   10.9959    3.4332    0.2880 C   0  0  1  0  0  0  0  0  0  0  0  0
   12.0622    2.3476    0.1698 C   0  0  0  0  0  0  0  0  0  0  0  0
   10.2332    0.5919    0.0145 C   0  0  0  0  0  0  0  0  0  0  0  0
    8.0521    1.3273   -1.1091 C   0  0  0  0  0  0  0  0  0  0  0  0
    8.4328    1.8264    1.2984 C   0  0  0  0  0  0  0  0  0  0  0  0
   12.6862   -0.0559    0.4300 C   0  0  0  0  0  0  0  0  0  0  0  0
   -2.3332   -0.8805    1.1814 C   0  0  0  0  0  0  0  0  0  0  0  0
    9.9777   -0.6484   -0.3208 C   0  0  0  0  0  0  0  0  0  0  0  0
   -2.1523    0.1066    2.3045 C   0  0  0  0  0  0  0  0  0  0  0  0
   -1.3450   -1.4503    0.4619 C   0  0  0  0  0  0  0  0  0  0  0  0
    9.7330   -1.8837   -0.6519 C   0  0  0  0  0  0  0  0  0  0  0  0
    8.4337   -2.3639   -1.1067 C   0  0  0  0  0  0  0  0  0  0  0  0
    0.0821   -1.2602    0.6279 C   0  0  0  0  0  0  0  0  0  0  0  0
    8.4242   -3.3910   -2.2149 C   0  0  0  0  0  0  0  0  0  0  0  0
    7.2598   -1.9631   -0.5750 C   0  0  0  0  0  0  0  0  0  0  0  0
    0.9919   -1.8773   -0.1447 C   0  0  0  0  0  0  0  0  0  0  0  0
    5.9154   -2.3648   -0.9380 C   0  0  0  0  0  0  0  0  0  0  0  0
    2.4196   -1.6862    0.0212 C   0  0  0  0  0  0  0  0  0  0  0  0
    4.8000   -1.9065   -0.3452 C   0  0  0  0  0  0  0  0  0  0  0  0
    3.4173   -2.2509   -0.6928 C   0  0  0  0  0  0  0  0  0  0  0  0
    3.2138   -3.2212   -1.8296 C   0  0  0  0  0  0  0  0  0  0  0  0
  -13.3289    0.8256   -1.5426 H   0  0  0  0  0  0  0  0  0  0  0  0
  -12.8207    2.2857   -0.7261 H   0  0  0  0  0  0  0  0  0  0  0  0
  -10.3663    3.0862   -1.1769 H   0  0  0  0  0  0  0  0  0  0  0  0
   -9.5368    2.5304   -2.6056 H   0  0  0  0  0  0  0  0  0  0  0  0
  -11.3357    0.7562   -2.9128 H   0  0  0  0  0  0  0  0  0  0  0  0
   -9.5198    0.9408    1.9738 H   0  0  0  0  0  0  0  0  0  0  0  0
  -10.4458   -0.5030    2.0063 H   0  0  0  0  0  0  0  0  0  0  0  0
  -13.7350    0.3329    0.8619 H   0  0  0  0  0  0  0  0  0  0  0  0
  -12.4785    0.9699    1.9240 H   0  0  0  0  0  0  0  0  0  0  0  0
  -12.5328   -0.7630    1.5137 H   0  0  0  0  0  0  0  0  0  0  0  0
   -7.4624    1.3081    0.1863 H   0  0  0  0  0  0  0  0  0  0  0  0
   -7.8510    2.6757   -0.7664 H   0  0  0  0  0  0  0  0  0  0  0  0
   -8.7128    2.4733    0.7360 H   0  0  0  0  0  0  0  0  0  0  0  0
   -8.0259   -0.5567   -1.2569 H   0  0  0  0  0  0  0  0  0  0  0  0
   -9.3780   -0.4811   -2.3794 H   0  0  0  0  0  0  0  0  0  0  0  0
   -8.0279    0.6404   -2.5370 H   0  0  0  0  0  0  0  0  0  0  0  0
  -11.4617    2.8087   -3.8741 H   0  0  0  0  0  0  0  0  0  0  0  0
   -8.1173    0.2722    3.6495 H   0  0  0  0  0  0  0  0  0  0  0  0
   -6.3946    0.5089    3.5586 H   0  0  0  0  0  0  0  0  0  0  0  0
   -7.4473    1.5585    2.6129 H   0  0  0  0  0  0  0  0  0  0  0  0
   -6.2733   -1.6047    0.3598 H   0  0  0  0  0  0  0  0  0  0  0  0
   -4.6394    0.0551    2.3750 H   0  0  0  0  0  0  0  0  0  0  0  0
   10.0108    3.0013   -1.5673 H   0  0  0  0  0  0  0  0  0  0  0  0
    9.0030    3.8364   -0.4166 H   0  0  0  0  0  0  0  0  0  0  0  0
   -3.9254   -1.8328    0.0541 H   0  0  0  0  0  0  0  0  0  0  0  0
   10.7566    3.6190    1.3403 H   0  0  0  0  0  0  0  0  0  0  0  0
   12.3988    2.2819   -0.8741 H   0  0  0  0  0  0  0  0  0  0  0  0
   12.9387    2.6674    0.7492 H   0  0  0  0  0  0  0  0  0  0  0  0
    8.4826    0.9581   -2.0467 H   0  0  0  0  0  0  0  0  0  0  0  0
    7.4606    2.2170   -1.3614 H   0  0  0  0  0  0  0  0  0  0  0  0
    7.3329    0.6035   -0.7328 H   0  0  0  0  0  0  0  0  0  0  0  0
    7.6061    2.5438    1.2341 H   0  0  0  0  0  0  0  0  0  0  0  0
    9.1027    2.1819    2.0864 H   0  0  0  0  0  0  0  0  0  0  0  0
    8.0130    0.8704    1.6324 H   0  0  0  0  0  0  0  0  0  0  0  0
   12.8899   -0.2018   -0.6364 H   0  0  0  0  0  0  0  0  0  0  0  0
   12.4423   -1.0261    0.8786 H   0  0  0  0  0  0  0  0  0  0  0  0
   13.6155    0.2684    0.9138 H   0  0  0  0  0  0  0  0  0  0  0  0
   11.0599    0.1719    2.3846 H   0  0  0  0  0  0  0  0  0  0  0  0
   10.8063    5.3259   -0.1549 H   0  0  0  0  0  0  0  0  0  0  0  0
   -2.6186    1.0702    2.0686 H   0  0  0  0  0  0  0  0  0  0  0  0
   -2.5636   -0.2811    3.2436 H   0  0  0  0  0  0  0  0  0  0  0  0
   -1.1022    0.3288    2.5104 H   0  0  0  0  0  0  0  0  0  0  0  0
   -1.6232   -2.1362   -0.3387 H   0  0  0  0  0  0  0  0  0  0  0  0
   10.5553   -2.5924   -0.6773 H   0  0  0  0  0  0  0  0  0  0  0  0
    0.4230   -0.5913    1.4110 H   0  0  0  0  0  0  0  0  0  0  0  0
    9.4304   -3.5523   -2.6186 H   0  0  0  0  0  0  0  0  0  0  0  0
    8.0631   -4.3571   -1.8465 H   0  0  0  0  0  0  0  0  0  0  0  0
    7.8006   -3.0648   -3.0542 H   0  0  0  0  0  0  0  0  0  0  0  0
    7.2962   -1.2785    0.2720 H   0  0  0  0  0  0  0  0  0  0  0  0
    0.6499   -2.5464   -0.9270 H   0  0  0  0  0  0  0  0  0  0  0  0
    5.8344   -3.0745   -1.7552 H   0  0  0  0  0  0  0  0  0  0  0  0
    2.6849   -0.9981    0.8250 H   0  0  0  0  0  0  0  0  0  0  0  0
    4.9163   -1.1934    0.4711 H   0  0  0  0  0  0  0  0  0  0  0  0
    2.1650   -3.4387   -2.0415 H   0  0  0  0  0  0  0  0  0  0  0  0
    3.6917   -4.1815   -1.6050 H   0  0  0  0  0  0  0  0  0  0  0  0
    3.6424   -2.8224   -2.7560 H   0  0  0  0  0  0  0  0  0  0  0  0
  1  6  1  0  0  0  0
  1  7  1  0  0  0  0
  2 11  1  0  0  0  0
  2 62  1  0  0  0  0
  3 16  2  0  0  0  0
  4 22  1  0  0  0  0
  4 83  1  0  0  0  0
  5 25  1  0  0  0  0
  5 84  1  0  0  0  0
  6  7  1  0  0  0  0
  6  8  1  0  0  0  0
  6 12  1  0  0  0  0
  7  9  1  0  0  0  0
  7 13  1  0  0  0  0
  8 10  1  0  0  0  0
  8 14  1  0  0  0  0
  8 15  1  0  0  0  0
  9 11  1  0  0  0  0
  9 46  1  0  0  0  0
  9 47  1  0  0  0  0
 10 11  1  0  0  0  0
 10 48  1  0  0  0  0
 10 49  1  0  0  0  0
 11 50  1  0  0  0  0
 12 16  1  0  0  0  0
 12 51  1  0  0  0  0
 12 52  1  0  0  0  0
 13 53  1  0  0  0  0
 13 54  1  0  0  0  0
 13 55  1  0  0  0  0
 14 56  1  0  0  0  0
 14 57  1  0  0  0  0
 14 58  1  0  0  0  0
 15 59  1  0  0  0  0
 15 60  1  0  0  0  0
 15 61  1  0  0  0  0
 16 17  1  0  0  0  0
 17 18  1  0  0  0  0
 17 19  2  0  0  0  0
 18 63  1  0  0  0  0
 18 64  1  0  0  0  0
 18 65  1  0  0  0  0
 19 20  1  0  0  0  0
 19 66  1  0  0  0  0
 20 24  2  0  0  0  0
 20 67  1  0  0  0  0
 21 23  1  0  0  0  0
 21 27  1  0  0  0  0
 21 28  1  0  0  0  0
 21 29  1  0  0  0  0
 22 26  1  0  0  0  0
 22 27  1  0  0  0  0
 22 30  1  0  0  0  0
 23 25  1  0  0  0  0
 23 68  1  0  0  0  0
 23 69  1  0  0  0  0
 24 31  1  0  0  0  0
 24 70  1  0  0  0  0
 25 26  1  0  0  0  0
 25 71  1  0  0  0  0
 26 72  1  0  0  0  0
 26 73  1  0  0  0  0
 27 32  2  0  0  0  0
 28 74  1  0  0  0  0
 28 75  1  0  0  0  0
 28 76  1  0  0  0  0
 29 77  1  0  0  0  0
 29 78  1  0  0  0  0
 29 79  1  0  0  0  0
 30 80  1  0  0  0  0
 30 81  1  0  0  0  0
 30 82  1  0  0  0  0
 31 33  1  0  0  0  0
 31 34  2  0  0  0  0
 32 35  2  0  0  0  0
 33 85  1  0  0  0  0
 33 86  1  0  0  0  0
 33 87  1  0  0  0  0
 34 37  1  0  0  0  0
 34 88  1  0  0  0  0
 35 36  1  0  0  0  0
 35 89  1  0  0  0  0
 36 38  1  0  0  0  0
 36 39  2  0  0  0  0
 37 40  2  0  0  0  0
 37 90  1  0  0  0  0
 38 91  1  0  0  0  0
 38 92  1  0  0  0  0
 38 93  1  0  0  0  0
 39 41  1  0  0  0  0
 39 94  1  0  0  0  0
 40 42  1  0  0  0  0
 40 95  1  0  0  0  0
 41 43  2  0  0  0  0
 41 96  1  0  0  0  0
 42 44  2  0  0  0  0
 42 97  1  0  0  0  0
 43 44  1  0  0  0  0
 43 98  1  0  0  0  0
 44 45  1  0  0  0  0
 45 99  1  0  0  0  0
 45100  1  0  0  0  0
 45101  1  0  0  0  0
M  END
> <PUBCHEM_COMPOUND_CID>
11273547

> <PUBCHEM_CONFORMER_RMSD>
1.2

> <PUBCHEM_CONFORMER_DIVERSEORDER>
32
163
215
78
103
35
210
193
126
114
212
200
13
30
97
162
203
2
155
206
194
226
175
67
9
33
113
82
124
89
197
177
95
165
181
223
169
133
125
10
129
109
107
168
60
190
216
69
178
118
1
217
185
224
157
55
202
52
4
86
34
209
117
156
5
74
230
6
39
79
99
90
158
58
171
71
84
81
211
77
170
214
85
225
150
131
7
160
51
198
123
161
180
173
92
137
25
88
144
11
119
93
73
127
140
31
70
63
148
149
59
68
50
102
142
21
221
108
61
38
36
134
16
182
152
218
222
135
29
48
234
83
172
80
18
54
12
66
75
53
219
204
232
228
187
189
98
139
94
56
22
115
42
47
205
132
28
41
199
19
159
100
37
145
213
3
147
64
24
116
110
196
153
192
27
220
201
146
91
128
8
45
43
151
23
20
40
62
87
207
229
188
111
183
191
44
233
65
195
122
186
14
26
167
184
143
154
174
208
57
96
130
136
179
72
231
121
105
176
17
227
112
46
141
106
15
164
104
76
166
101
120
49
138

> <PUBCHEM_MMFF94_PARTIAL_CHARGES>
51
1 -0.3
11 0.28
12 0.16
13 0.09
16 0.49
17 -0.12
18 0.14
19 -0.15
2 -0.68
20 -0.15
21 0.14
22 0.42
24 -0.15
25 0.28
27 -0.21
3 -0.57
31 -0.14
32 -0.13
33 0.14
34 -0.15
35 -0.09
36 -0.14
37 -0.15
38 0.14
39 -0.15
4 -0.68
40 -0.15
41 -0.15
42 -0.15
43 -0.15
44 -0.14
45 0.14
5 -0.68
6 -0.04
62 0.4
66 0.15
67 0.15
7 -0.04
70 0.15
8 0.09
83 0.4
84 0.4
88 0.15
89 0.15
9 0.09
90 0.15
94 0.15
95 0.15
96 0.15
97 0.15
98 0.15

> <PUBCHEM_EFFECTIVE_ROTOR_COUNT>
12

> <PUBCHEM_PHARMACOPHORE_FEATURES>
16
1 1 acceptor
1 18 hydrophobe
1 2 acceptor
1 2 donor
1 3 acceptor
1 33 hydrophobe
1 38 hydrophobe
1 4 acceptor
1 4 donor
1 45 hydrophobe
1 5 acceptor
1 5 donor
3 21 28 29 hydrophobe
3 8 14 15 hydrophobe
6 21 22 23 25 26 27 rings
7 1 6 7 8 9 10 11 rings

> <PUBCHEM_HEAVY_ATOM_COUNT>
45

> <PUBCHEM_ATOM_DEF_STEREO_COUNT>
5

> <PUBCHEM_ATOM_UDEF_STEREO_COUNT>
0

> <PUBCHEM_BOND_DEF_STEREO_COUNT>
7

> <PUBCHEM_BOND_UDEF_STEREO_COUNT>
0

> <PUBCHEM_ISOTOPIC_ATOM_COUNT>
0

> <PUBCHEM_COMPONENT_COUNT>
1

> <PUBCHEM_CACTVS_TAUTO_COUNT>
2

> <PUBCHEM_CONFORMER_ID>
00AC054B00000020

> <PUBCHEM_MMFF94_ENERGY>
132.1218

> <PUBCHEM_FEATURE_SELFOVERLAP>
81.202

> <PUBCHEM_SHAPE_FINGERPRINT>
10168742 298 11743843577645503120
11061554 47 18113052719219563965
12559415 43 18113899355477396838
131240 100 18335139782694522925
14344974 52 18409450284859162527
15065858 18 18260555514973379787
15219723 13 10665230363395118305
15538507 75 14418129613354047386
16728433 110 18413112744879328546
20501277 279 18409729569375814804
21362267 2 18410569613635029180
21792934 111 18040723572001476334
23378982 100 16008738105676604180
23528521 120 18342738507791992387
306946 40 18259984868659252227
44389302 135 14562531782613008722
4756326 101 18259706696296868394

> <PUBCHEM_SHAPE_MULTIPOLES>
896.73
75.85
3.8
2.19
17.79
1.5
0.2
52.84
14.48
-14.95
1.94
6.78
0.41
8.3

> <PUBCHEM_SHAPE_SELFOVERLAP>
1846.451

> <PUBCHEM_SHAPE_VOLUME>
514.6

> <PUBCHEM_COORDINATE_TYPE>
2
5
10

$$$$
