16061220
  -OEChem-02212202033D

 99100  0     1  0  0  0  0  0999 V2000
  -11.6267    1.4544   -0.1523 O   0  0  0  0  0  0  0  0  0  0  0  0
  -12.0995   -0.9017    3.4116 O   0  0  0  0  0  0  0  0  0  0  0  0
   11.1175   -0.3388   -0.2159 O   0  0  0  0  0  0  0  0  0  0  0  0
    7.3108    3.5260   -0.1320 O   0  0  0  0  0  0  0  0  0  0  0  0
    9.8323   -2.7554    0.0474 O   0  0  0  0  0  0  0  0  0  0  0  0
   -9.1394    0.1568    1.2839 C   0  0  0  0  0  0  0  0  0  0  0  0
  -11.3277    0.0537   -0.1717 C   0  0  2  0  0  0  0  0  0  0  0  0
   -9.9599   -0.4972    2.4206 C   0  0  0  0  0  0  0  0  0  0  0  0
   10.2662    1.6305    0.9093 C   0  0  0  0  0  0  0  0  0  0  0  0
  -11.4515   -0.1844    2.3640 C   0  0  1  0  0  0  0  0  0  0  0  0
  -12.0300   -0.6190    1.0202 C   0  0  0  0  0  0  0  0  0  0  0  0
   -9.8037   -0.1001   -0.0870 C   0  0  0  0  0  0  0  0  0  0  0  0
    9.8909    0.2692    0.2165 C   0  0  1  0  0  0  0  0  0  0  0  0
    8.9894    2.4472    1.1920 C   0  0  0  0  0  0  0  0  0  0  0  0
   -8.9966    1.6735    1.5308 C   0  0  0  0  0  0  0  0  0  0  0  0
   -7.7151   -0.4517    1.3535 C   0  0  0  0  0  0  0  0  0  0  0  0
    8.9805    0.4980   -0.9905 C   0  0  0  0  0  0  0  0  0  0  0  0
    9.2014   -0.7261    1.1705 C   0  0  0  0  0  0  0  0  0  0  0  0
  -11.9304   -0.5090   -1.4722 C   0  0  0  0  0  0  0  0  0  0  0  0
   11.0103    1.4119    2.2464 C   0  0  0  0  0  0  0  0  0  0  0  0
   11.2210    2.4699    0.0153 C   0  0  0  0  0  0  0  0  0  0  0  0
    8.1085    2.5952   -0.0277 C   0  0  0  0  0  0  0  0  0  0  0  0
    8.1730    1.5667   -1.0926 C   0  0  0  0  0  0  0  0  0  0  0  0
   -9.0829   -0.2925   -1.1638 C   0  0  0  0  0  0  0  0  0  0  0  0
    8.9855   -0.5344   -2.0885 C   0  0  0  0  0  0  0  0  0  0  0  0
    8.9182   -2.0663    0.5050 C   0  0  0  0  0  0  0  0  0  0  0  0
   -8.3759   -0.4848   -2.2395 C   0  0  0  0  0  0  0  0  0  0  0  0
    7.4920   -2.5611    0.3938 C   0  0  0  0  0  0  0  0  0  0  0  0
   -6.9164   -0.4804   -2.2755 C   0  0  0  0  0  0  0  0  0  0  0  0
    7.3567   -4.0600    0.4358 C   0  0  0  0  0  0  0  0  0  0  0  0
    6.4783   -1.6803    0.2943 C   0  0  0  0  0  0  0  0  0  0  0  0
   -6.2437   -1.5336   -3.1206 C   0  0  0  0  0  0  0  0  0  0  0  0
   -6.2576    0.4354   -1.5361 C   0  0  0  0  0  0  0  0  0  0  0  0
    5.0658   -1.9931    0.1718 C   0  0  0  0  0  0  0  0  0  0  0  0
   -4.8287    0.5988   -1.3927 C   0  0  0  0  0  0  0  0  0  0  0  0
    4.1202   -1.0424    0.0778 C   0  0  0  0  0  0  0  0  0  0  0  0
   -4.2291    1.5339   -0.6382 C   0  0  0  0  0  0  0  0  0  0  0  0
    2.6791   -1.2657   -0.0327 C   0  0  0  0  0  0  0  0  0  0  0  0
   -2.7825    1.6589   -0.5254 C   0  0  0  0  0  0  0  0  0  0  0  0
    2.2002   -2.6965   -0.0795 C   0  0  0  0  0  0  0  0  0  0  0  0
    1.7729   -0.2683   -0.1245 C   0  0  0  0  0  0  0  0  0  0  0  0
   -1.9272    0.6200   -0.4368 C   0  0  0  0  0  0  0  0  0  0  0  0
   -2.2887    3.0795   -0.5029 C   0  0  0  0  0  0  0  0  0  0  0  0
    0.3288   -0.3495   -0.2379 C   0  0  0  0  0  0  0  0  0  0  0  0
   -0.4861    0.7129   -0.3238 C   0  0  0  0  0  0  0  0  0  0  0  0
   -9.5687   -0.1947    3.4017 H   0  0  0  0  0  0  0  0  0  0  0  0
   -9.8315   -1.5894    2.3903 H   0  0  0  0  0  0  0  0  0  0  0  0
  -11.6299    0.8816    2.5394 H   0  0  0  0  0  0  0  0  0  0  0  0
  -11.9657   -1.7128    0.9356 H   0  0  0  0  0  0  0  0  0  0  0  0
  -13.1023   -0.3814    1.0154 H   0  0  0  0  0  0  0  0  0  0  0  0
    9.2568    3.4533    1.5383 H   0  0  0  0  0  0  0  0  0  0  0  0
    8.3836    1.9811    1.9777 H   0  0  0  0  0  0  0  0  0  0  0  0
   -8.4580    1.8670    2.4660 H   0  0  0  0  0  0  0  0  0  0  0  0
   -8.4370    2.1590    0.7230 H   0  0  0  0  0  0  0  0  0  0  0  0
   -9.9625    2.1805    1.6084 H   0  0  0  0  0  0  0  0  0  0  0  0
   -7.3947   -0.5523    2.3988 H   0  0  0  0  0  0  0  0  0  0  0  0
   -7.6685   -1.4542    0.9139 H   0  0  0  0  0  0  0  0  0  0  0  0
   -6.9645    0.1845    0.8904 H   0  0  0  0  0  0  0  0  0  0  0  0
    9.8642   -0.9860    2.0061 H   0  0  0  0  0  0  0  0  0  0  0  0
    8.3023   -0.3067    1.6283 H   0  0  0  0  0  0  0  0  0  0  0  0
  -11.7032   -1.5729   -1.6006 H   0  0  0  0  0  0  0  0  0  0  0  0
  -11.5709    0.0390   -2.3510 H   0  0  0  0  0  0  0  0  0  0  0  0
  -13.0210   -0.3920   -1.4756 H   0  0  0  0  0  0  0  0  0  0  0  0
   10.3738    0.9321    2.9967 H   0  0  0  0  0  0  0  0  0  0  0  0
   11.3266    2.3706    2.6753 H   0  0  0  0  0  0  0  0  0  0  0  0
   11.9105    0.8022    2.1196 H   0  0  0  0  0  0  0  0  0  0  0  0
   11.4297    3.4440    0.4731 H   0  0  0  0  0  0  0  0  0  0  0  0
   10.8053    2.6625   -0.9784 H   0  0  0  0  0  0  0  0  0  0  0  0
   12.1847    1.9670   -0.1229 H   0  0  0  0  0  0  0  0  0  0  0  0
    7.5232    1.7106   -1.9494 H   0  0  0  0  0  0  0  0  0  0  0  0
  -12.5935    1.5579   -0.1702 H   0  0  0  0  0  0  0  0  0  0  0  0
  -13.0489   -0.6972    3.3625 H   0  0  0  0  0  0  0  0  0  0  0  0
   11.5933   -0.6678    0.5647 H   0  0  0  0  0  0  0  0  0  0  0  0
    8.3294   -1.3792   -1.8877 H   0  0  0  0  0  0  0  0  0  0  0  0
    8.6352   -0.0938   -3.0304 H   0  0  0  0  0  0  0  0  0  0  0  0
    9.9932   -0.9064   -2.2947 H   0  0  0  0  0  0  0  0  0  0  0  0
   -8.8828   -0.7788   -3.1540 H   0  0  0  0  0  0  0  0  0  0  0  0
    7.6501   -4.4913   -0.5268 H   0  0  0  0  0  0  0  0  0  0  0  0
    6.3443   -4.3986    0.6670 H   0  0  0  0  0  0  0  0  0  0  0  0
    8.0066   -4.4788    1.2124 H   0  0  0  0  0  0  0  0  0  0  0  0
    6.6879   -0.6156    0.2746 H   0  0  0  0  0  0  0  0  0  0  0  0
   -5.1543   -1.5361   -3.0605 H   0  0  0  0  0  0  0  0  0  0  0  0
   -6.5826   -2.5299   -2.8146 H   0  0  0  0  0  0  0  0  0  0  0  0
   -6.5109   -1.3929   -4.1739 H   0  0  0  0  0  0  0  0  0  0  0  0
   -6.8325    1.1917   -1.0028 H   0  0  0  0  0  0  0  0  0  0  0  0
    4.7891   -3.0406    0.1572 H   0  0  0  0  0  0  0  0  0  0  0  0
   -4.2007   -0.0902   -1.9483 H   0  0  0  0  0  0  0  0  0  0  0  0
    4.4240    0.0038    0.0927 H   0  0  0  0  0  0  0  0  0  0  0  0
   -4.8237    2.2541   -0.0814 H   0  0  0  0  0  0  0  0  0  0  0  0
    1.1270   -2.8409   -0.2000 H   0  0  0  0  0  0  0  0  0  0  0  0
    2.6669   -3.2232   -0.9205 H   0  0  0  0  0  0  0  0  0  0  0  0
    2.4743   -3.2149    0.8470 H   0  0  0  0  0  0  0  0  0  0  0  0
    2.1559    0.7532   -0.1041 H   0  0  0  0  0  0  0  0  0  0  0  0
   -2.3268   -0.3931   -0.4403 H   0  0  0  0  0  0  0  0  0  0  0  0
   -2.0167    3.3753    0.5160 H   0  0  0  0  0  0  0  0  0  0  0  0
   -1.4268    3.2247   -1.1626 H   0  0  0  0  0  0  0  0  0  0  0  0
   -3.0545    3.7807   -0.8557 H   0  0  0  0  0  0  0  0  0  0  0  0
   -0.1334   -1.3299   -0.2550 H   0  0  0  0  0  0  0  0  0  0  0  0
   -0.0437    1.7049   -0.3001 H   0  0  0  0  0  0  0  0  0  0  0  0
  1  7  1  0  0  0  0
  1 71  1  0  0  0  0
  2 10  1  0  0  0  0
  2 72  1  0  0  0  0
  3 13  1  0  0  0  0
  3 73  1  0  0  0  0
  4 22  2  0  0  0  0
  5 26  2  0  0  0  0
  6  8  1  0  0  0  0
  6 12  1  0  0  0  0
  6 15  1  0  0  0  0
  6 16  1  0  0  0  0
  7 11  1  0  0  0  0
  7 12  1  0  0  0  0
  7 19  1  0  0  0  0
  8 10  1  0  0  0  0
  8 46  1  0  0  0  0
  8 47  1  0  0  0  0
  9 13  1  0  0  0  0
  9 14  1  0  0  0  0
  9 20  1  0  0  0  0
  9 21  1  0  0  0  0
 10 11  1  0  0  0  0
 10 48  1  0  0  0  0
 11 49  1  0  0  0  0
 11 50  1  0  0  0  0
 12 24  2  0  0  0  0
 13 17  1  0  0  0  0
 13 18  1  0  0  0  0
 14 22  1  0  0  0  0
 14 51  1  0  0  0  0
 14 52  1  0  0  0  0
 15 53  1  0  0  0  0
 15 54  1  0  0  0  0
 15 55  1  0  0  0  0
 16 56  1  0  0  0  0
 16 57  1  0  0  0  0
 16 58  1  0  0  0  0
 17 23  2  0  0  0  0
 17 25  1  0  0  0  0
 18 26  1  0  0  0  0
 18 59  1  0  0  0  0
 18 60  1  0  0  0  0
 19 61  1  0  0  0  0
 19 62  1  0  0  0  0
 19 63  1  0  0  0  0
 20 64  1  0  0  0  0
 20 65  1  0  0  0  0
 20 66  1  0  0  0  0
 21 67  1  0  0  0  0
 21 68  1  0  0  0  0
 21 69  1  0  0  0  0
 22 23  1  0  0  0  0
 23 70  1  0  0  0  0
 24 27  2  0  0  0  0
 25 74  1  0  0  0  0
 25 75  1  0  0  0  0
 25 76  1  0  0  0  0
 26 28  1  0  0  0  0
 27 29  1  0  0  0  0
 27 77  1  0  0  0  0
 28 30  1  0  0  0  0
 28 31  2  0  0  0  0
 29 32  1  0  0  0  0
 29 33  2  0  0  0  0
 30 78  1  0  0  0  0
 30 79  1  0  0  0  0
 30 80  1  0  0  0  0
 31 34  1  0  0  0  0
 31 81  1  0  0  0  0
 32 82  1  0  0  0  0
 32 83  1  0  0  0  0
 32 84  1  0  0  0  0
 33 35  1  0  0  0  0
 33 85  1  0  0  0  0
 34 36  2  0  0  0  0
 34 86  1  0  0  0  0
 35 37  2  0  0  0  0
 35 87  1  0  0  0  0
 36 38  1  0  0  0  0
 36 88  1  0  0  0  0
 37 39  1  0  0  0  0
 37 89  1  0  0  0  0
 38 40  1  0  0  0  0
 38 41  2  0  0  0  0
 39 42  2  0  0  0  0
 39 43  1  0  0  0  0
 40 90  1  0  0  0  0
 40 91  1  0  0  0  0
 40 92  1  0  0  0  0
 41 44  1  0  0  0  0
 41 93  1  0  0  0  0
 42 45  1  0  0  0  0
 42 94  1  0  0  0  0
 43 95  1  0  0  0  0
 43 96  1  0  0  0  0
 43 97  1  0  0  0  0
 44 45  2  0  0  0  0
 44 98  1  0  0  0  0
 45 99  1  0  0  0  0
M  END
> <PUBCHEM_COMPOUND_CID>
16061220

> <PUBCHEM_CONFORMER_RMSD>
1.6

> <PUBCHEM_CONFORMER_DIVERSEORDER>
1
6
24
40
46
59
33
49
10
12
22
61
26
37
45
11
29
47
36
14
28
56
44
32
52
54
43
31
17
39
60
30
50
25
42
7
8
16
5
57
27
15
20
48
34
3
41
58
9
2
53
4
55
19
51
21
35
23
18
38
13

> <PUBCHEM_MMFF94_PARTIAL_CHARGES>
52
1 -0.68
10 0.28
12 -0.21
13 0.42
14 0.06
17 -0.28
18 0.06
2 -0.68
22 0.49
23 -0.14
24 -0.13
25 0.14
26 0.49
27 -0.09
28 -0.12
29 -0.14
3 -0.68
30 0.14
31 -0.15
32 0.14
33 -0.15
34 -0.15
35 -0.15
36 -0.15
37 -0.15
38 -0.14
39 -0.14
4 -0.57
40 0.14
41 -0.15
42 -0.15
43 0.14
44 -0.15
45 -0.15
5 -0.57
6 0.14
7 0.42
70 0.15
71 0.4
72 0.4
73 0.4
77 0.15
81 0.15
85 0.15
86 0.15
87 0.15
88 0.15
89 0.15
93 0.15
94 0.15
98 0.15
99 0.15

> <PUBCHEM_EFFECTIVE_ROTOR_COUNT>
11.6

> <PUBCHEM_PHARMACOPHORE_FEATURES>
16
1 1 acceptor
1 1 donor
1 2 acceptor
1 2 donor
1 3 acceptor
1 3 donor
1 30 hydrophobe
1 32 hydrophobe
1 4 acceptor
1 40 hydrophobe
1 43 hydrophobe
1 5 acceptor
3 6 15 16 hydrophobe
3 9 20 21 hydrophobe
6 6 7 8 10 11 12 rings
6 9 13 14 17 22 23 rings

> <PUBCHEM_HEAVY_ATOM_COUNT>
45

> <PUBCHEM_ATOM_DEF_STEREO_COUNT>
3

> <PUBCHEM_ATOM_UDEF_STEREO_COUNT>
0

> <PUBCHEM_BOND_DEF_STEREO_COUNT>
7

> <PUBCHEM_BOND_UDEF_STEREO_COUNT>
0

> <PUBCHEM_ISOTOPIC_ATOM_COUNT>
0

> <PUBCHEM_COMPONENT_COUNT>
1

> <PUBCHEM_CACTVS_TAUTO_COUNT>
10

> <PUBCHEM_CONFORMER_ID>
00F5132400000001

> <PUBCHEM_MMFF94_ENERGY>
128.4861

> <PUBCHEM_FEATURE_SELFOVERLAP>
81.206

> <PUBCHEM_SHAPE_FINGERPRINT>
10168742 298 16153423931275665112
11476731 38 18408319986858037734
11973864 48 18113901559159505881
12144603 126 18060415820374466751
131240 100 17821728330021007123
15065858 18 17530960250719931631
16067689 302 18410576172192099484
16728433 110 18334855013129879653
17686467 74 18040712541739684805
20501277 279 18408603677974666681
22164985 6 18334852818486442614
4173938 188 17312822675977012571
57366028 249 18410567423085670644

> <PUBCHEM_SHAPE_MULTIPOLES>
896.73
67.14
3.15
2.25
45.28
0.29
0.3
-5.49
21.05
-12.07
0.27
7.87
0.38
-0.21

> <PUBCHEM_SHAPE_SELFOVERLAP>
1838.461

> <PUBCHEM_SHAPE_VOLUME>
514.1

> <PUBCHEM_COORDINATE_TYPE>
2
5
10

$$$$
