467299
  -OEChem-02222212183D

 66 70  0     1  0  0  0  0  0999 V2000
    2.4535   -1.5064    1.3444 O   0  0  0  0  0  0  0  0  0  0  0  0
    1.5859    0.3202   -0.7063 O   0  0  0  0  0  0  0  0  0  0  0  0
   -2.3597   -1.8646    0.9222 O   0  0  0  0  0  0  0  0  0  0  0  0
   -0.2707   -1.8973    5.1973 O   0  0  0  0  0  0  0  0  0  0  0  0
    6.4779   -2.6266   -2.9119 O   0  0  0  0  0  0  0  0  0  0  0  0
    6.5671    1.0464    0.1606 O   0  0  0  0  0  0  0  0  0  0  0  0
    7.8056   -0.4623   -1.8044 O   0  0  0  0  0  0  0  0  0  0  0  0
    0.1459    0.7701   -2.4450 O   0  0  0  0  0  0  0  0  0  0  0  0
   -2.5301    0.4556    1.0701 O   0  0  0  0  0  0  0  0  0  0  0  0
   -2.4352    4.5837   -0.1621 O   0  0  0  0  0  0  0  0  0  0  0  0
    2.0001    4.6072    1.6443 O   0  0  0  0  0  0  0  0  0  0  0  0
   -0.5092    5.7617    1.4419 O   0  0  0  0  0  0  0  0  0  0  0  0
   -6.8117   -3.2123   -0.6899 O   0  0  0  0  0  0  0  0  0  0  0  0
   -6.0931    1.1334   -2.5701 O   0  0  0  0  0  0  0  0  0  0  0  0
   -7.6086   -1.1778   -2.3918 O   0  0  0  0  0  0  0  0  0  0  0  0
    1.5025   -1.0935   -0.8909 C   0  0  1  0  0  0  0  0  0  0  0  0
    2.5807   -1.7978   -0.0567 C   0  0  1  0  0  0  0  0  0  0  0  0
    0.1226   -1.5770   -0.4494 C   0  0  0  0  0  0  0  0  0  0  0  0
    0.0348   -1.6670    1.0504 C   0  0  0  0  0  0  0  0  0  0  0  0
    1.1852   -1.6358    1.8487 C   0  0  0  0  0  0  0  0  0  0  0  0
    3.9791   -1.4403   -0.5246 C   0  0  0  0  0  0  0  0  0  0  0  0
   -1.2171   -1.8049    1.6651 C   0  0  0  0  0  0  0  0  0  0  0  0
    1.0804   -1.7000    3.2406 C   0  0  0  0  0  0  0  0  0  0  0  0
    4.6429   -0.3498    0.0356 C   0  0  0  0  0  0  0  0  0  0  0  0
    4.5981   -2.2028   -1.5139 C   0  0  0  0  0  0  0  0  0  0  0  0
   -1.3189   -1.8830    3.0545 C   0  0  0  0  0  0  0  0  0  0  0  0
   -0.1710   -1.8263    3.8418 C   0  0  0  0  0  0  0  0  0  0  0  0
    0.6645    1.0587   -1.3776 C   0  0  0  0  0  0  0  0  0  0  0  0
    5.8837   -1.8743   -1.9439 C   0  0  0  0  0  0  0  0  0  0  0  0
    5.9285   -0.0213   -0.3944 C   0  0  0  0  0  0  0  0  0  0  0  0
    6.5489   -0.7836   -1.3841 C   0  0  0  0  0  0  0  0  0  0  0  0
    0.3537    2.3043   -0.6317 C   0  0  0  0  0  0  0  0  0  0  0  0
   -2.9463   -0.6227    0.6740 C   0  0  0  0  0  0  0  0  0  0  0  0
    1.3328    2.8699    0.1592 C   0  0  0  0  0  0  0  0  0  0  0  0
   -0.9046    2.8579   -0.7519 C   0  0  0  0  0  0  0  0  0  0  0  0
   -4.1810   -0.7692   -0.1373 C   0  0  0  0  0  0  0  0  0  0  0  0
   -1.1963    4.0279   -0.0508 C   0  0  0  0  0  0  0  0  0  0  0  0
    1.0412    4.0399    0.8603 C   0  0  0  0  0  0  0  0  0  0  0  0
   -0.2234    4.6190    0.7552 C   0  0  0  0  0  0  0  0  0  0  0  0
   -4.5545    0.2608   -0.9763 C   0  0  0  0  0  0  0  0  0  0  0  0
   -4.9170   -1.9313   -0.0276 C   0  0  0  0  0  0  0  0  0  0  0  0
   -6.0771   -2.0693   -0.7899 C   0  0  0  0  0  0  0  0  0  0  0  0
   -5.7144    0.1228   -1.7386 C   0  0  0  0  0  0  0  0  0  0  0  0
   -6.4758   -1.0422   -1.6453 C   0  0  0  0  0  0  0  0  0  0  0  0
    1.6507   -1.3110   -1.9569 H   0  0  0  0  0  0  0  0  0  0  0  0
    2.4708   -2.8876   -0.1598 H   0  0  0  0  0  0  0  0  0  0  0  0
   -0.6811   -0.9497   -0.8401 H   0  0  0  0  0  0  0  0  0  0  0  0
   -0.0359   -2.5895   -0.8434 H   0  0  0  0  0  0  0  0  0  0  0  0
    1.9793   -1.6578    3.8512 H   0  0  0  0  0  0  0  0  0  0  0  0
    4.1638    0.2561    0.8007 H   0  0  0  0  0  0  0  0  0  0  0  0
    4.0772   -3.0513   -1.9511 H   0  0  0  0  0  0  0  0  0  0  0  0
   -2.2940   -1.9870    3.5242 H   0  0  0  0  0  0  0  0  0  0  0  0
    0.6208   -1.8433    5.5826 H   0  0  0  0  0  0  0  0  0  0  0  0
    2.3257    2.4358    0.2384 H   0  0  0  0  0  0  0  0  0  0  0  0
   -1.6617    2.3945   -1.3783 H   0  0  0  0  0  0  0  0  0  0  0  0
    5.8697   -3.3368   -3.1799 H   0  0  0  0  0  0  0  0  0  0  0  0
    5.9860    1.4539    0.8256 H   0  0  0  0  0  0  0  0  0  0  0  0
    8.1055    0.3182   -1.3068 H   0  0  0  0  0  0  0  0  0  0  0  0
   -3.9594    1.1667   -1.0497 H   0  0  0  0  0  0  0  0  0  0  0  0
   -4.6300   -2.7365    0.6427 H   0  0  0  0  0  0  0  0  0  0  0  0
   -2.9759    4.0365   -0.7573 H   0  0  0  0  0  0  0  0  0  0  0  0
    2.8091    4.0693    1.5965 H   0  0  0  0  0  0  0  0  0  0  0  0
   -1.4287    6.0144    1.2483 H   0  0  0  0  0  0  0  0  0  0  0  0
   -7.5775   -3.1367   -1.2853 H   0  0  0  0  0  0  0  0  0  0  0  0
   -5.4473    1.8577   -2.5035 H   0  0  0  0  0  0  0  0  0  0  0  0
   -7.7252   -0.3705   -2.9223 H   0  0  0  0  0  0  0  0  0  0  0  0
  1 17  1  0  0  0  0
  1 20  1  0  0  0  0
  2 16  1  0  0  0  0
  2 28  1  0  0  0  0
  3 22  1  0  0  0  0
  3 33  1  0  0  0  0
  4 27  1  0  0  0  0
  4 53  1  0  0  0  0
  5 29  1  0  0  0  0
  5 56  1  0  0  0  0
  6 30  1  0  0  0  0
  6 57  1  0  0  0  0
  7 31  1  0  0  0  0
  7 58  1  0  0  0  0
  8 28  2  0  0  0  0
  9 33  2  0  0  0  0
 10 37  1  0  0  0  0
 10 61  1  0  0  0  0
 11 38  1  0  0  0  0
 11 62  1  0  0  0  0
 12 39  1  0  0  0  0
 12 63  1  0  0  0  0
 13 42  1  0  0  0  0
 13 64  1  0  0  0  0
 14 43  1  0  0  0  0
 14 65  1  0  0  0  0
 15 44  1  0  0  0  0
 15 66  1  0  0  0  0
 16 17  1  0  0  0  0
 16 18  1  0  0  0  0
 16 45  1  0  0  0  0
 17 21  1  0  0  0  0
 17 46  1  0  0  0  0
 18 19  1  0  0  0  0
 18 47  1  0  0  0  0
 18 48  1  0  0  0  0
 19 20  2  0  0  0  0
 19 22  1  0  0  0  0
 20 23  1  0  0  0  0
 21 24  2  0  0  0  0
 21 25  1  0  0  0  0
 22 26  2  0  0  0  0
 23 27  2  0  0  0  0
 23 49  1  0  0  0  0
 24 30  1  0  0  0  0
 24 50  1  0  0  0  0
 25 29  2  0  0  0  0
 25 51  1  0  0  0  0
 26 27  1  0  0  0  0
 26 52  1  0  0  0  0
 28 32  1  0  0  0  0
 29 31  1  0  0  0  0
 30 31  2  0  0  0  0
 32 34  2  0  0  0  0
 32 35  1  0  0  0  0
 33 36  1  0  0  0  0
 34 38  1  0  0  0  0
 34 54  1  0  0  0  0
 35 37  2  0  0  0  0
 35 55  1  0  0  0  0
 36 40  2  0  0  0  0
 36 41  1  0  0  0  0
 37 39  1  0  0  0  0
 38 39  2  0  0  0  0
 40 43  1  0  0  0  0
 40 59  1  0  0  0  0
 41 42  2  0  0  0  0
 41 60  1  0  0  0  0
 42 44  1  0  0  0  0
 43 44  2  0  0  0  0
M  END
> <PUBCHEM_COMPOUND_CID>
467299

> <PUBCHEM_CONFORMER_RMSD>
1

> <PUBCHEM_CONFORMER_DIVERSEORDER>
1
186
197
254
206
6
283
185
277
266
55
205
61
208
101
52
148
274
146
184
214
160
253
236
113
167
309
65
71
245
246
136
187
234
268
127
106
285
46
259
91
172
97
153
144
85
273
202
291
310
292
265
262
183
64
152
132
299
223
168
63
175
211
112
133
264
279
288
110
181
198
263
105
295
165
88
177
217
249
306
250
239
161
233
33
256
243
95
40
81
182
24
173
196
278
130
174
111
302
131
26
271
176
232
138
308
301
145
228
298
103
53
280
45
191
86
22
8
156
204
293
241
276
180
296
252
229
118
150
231
141
210
307
48
102
219
122
303
99
269
194
251
73
42
216
128
31
286
109
294
289
248
215
140
275
281
257
203
93
78
163
235
60
247
57
287
143
244
12
114
225
304
237
96
32
189
190
41
220
142
14
124
155
171
25
272
107
69
200
66
282
226
158
117
270
139
92
193
159
126
116
221
125
68
44
192
179
261
120
121
100
188
83
305
98
79
195
119
224
230
290
94
157
35
54
207
30
129
13
169
76
17
149
115
28
75
87
34
89
36
10
267
108
151
29
9
240
58
162
2
82
70
164
137
170
15
19
21
227
4
49
300
56
7
134
90
23
39
284
178
50
222
213
242
297
166
72
38
20
135
104
212
16
67
84
209
238
199
258
255
5
260
74
62
51
123
77
3
37
59
218
147
11
154
27
18
201
43
47
80

> <PUBCHEM_MMFF94_PARTIAL_CHARGES>
62
1 -0.36
10 -0.53
11 -0.53
12 -0.53
13 -0.53
14 -0.53
15 -0.53
16 0.28
17 0.42
18 0.14
19 -0.14
2 -0.43
20 0.08
21 -0.14
22 0.08
23 -0.15
24 -0.15
25 -0.15
26 -0.15
27 0.08
28 0.63
29 0.08
3 -0.23
30 0.08
31 0.08
32 0.09
33 0.63
34 -0.15
35 -0.15
36 0.09
37 0.08
38 0.08
39 0.08
4 -0.53
40 -0.15
41 -0.15
42 0.08
43 0.08
44 0.08
49 0.15
5 -0.53
50 0.15
51 0.15
52 0.15
53 0.45
54 0.15
55 0.15
56 0.45
57 0.45
58 0.45
59 0.15
6 -0.53
60 0.15
61 0.45
62 0.45
63 0.45
64 0.45
65 0.45
66 0.45
7 -0.53
8 -0.57
9 -0.57

> <PUBCHEM_EFFECTIVE_ROTOR_COUNT>
7.8

> <PUBCHEM_PHARMACOPHORE_FEATURES>
18
1 1 acceptor
1 10 donor
1 11 donor
1 12 donor
1 13 donor
1 14 donor
1 15 donor
1 4 donor
1 5 donor
1 6 donor
1 7 donor
1 8 acceptor
1 9 acceptor
6 1 16 17 18 19 20 rings
6 19 20 22 23 26 27 rings
6 21 24 25 29 30 31 rings
6 32 34 35 37 38 39 rings
6 36 40 41 42 43 44 rings

> <PUBCHEM_HEAVY_ATOM_COUNT>
44

> <PUBCHEM_ATOM_DEF_STEREO_COUNT>
2

> <PUBCHEM_ATOM_UDEF_STEREO_COUNT>
0

> <PUBCHEM_BOND_DEF_STEREO_COUNT>
0

> <PUBCHEM_BOND_UDEF_STEREO_COUNT>
0

> <PUBCHEM_ISOTOPIC_ATOM_COUNT>
0

> <PUBCHEM_COMPONENT_COUNT>
1

> <PUBCHEM_CACTVS_TAUTO_COUNT>
1000

> <PUBCHEM_CONFORMER_ID>
0007216300000001

> <PUBCHEM_MMFF94_ENERGY>
138.4031

> <PUBCHEM_FEATURE_SELFOVERLAP>
91.417

> <PUBCHEM_SHAPE_FINGERPRINT>
10032420 55 17968366871259864005
11115154 58 18411986854126468217
11607047 74 17555442187741735323
12156800 1 18191849168347685984
12166972 35 17703795854992064291
12293681 160 18040999514005080163
12758862 11 17458634466640175686
12788726 201 18263641770986371344
13782708 43 17489024855883479854
14068700 675 18261108560737010812
14931854 50 17967811622320091247
15198563 99 18270686359197849716
15351339 4 18041548149265163305
15775530 1 17321854266024168531
17138139 8 18188487969506087581
18365409 1 18050862021822645981
18681886 176 18341885346940779623
376196 1 17616234224090740457
4017518 198 17480015737227113832
508180 173 18261395597991710251
513532 50 18266722748775636299
57527295 17 17749660819510156891
6004065 56 18340487897325441526
7226269 152 17894925031079994138

> <PUBCHEM_SHAPE_MULTIPOLES>
817.46
15.73
5.61
3.37
0.16
11.3
-3.58
-12.07
17.61
1.32
-2.83
0.08
-2.85
1.71

> <PUBCHEM_SHAPE_SELFOVERLAP>
1830.114

> <PUBCHEM_SHAPE_VOLUME>
427.8

> <PUBCHEM_COORDINATE_TYPE>
2
5
10

$$$$
