6474788
  -OEChem-02222212213D

 53 56  0     1  0  0  0  0  0999 V2000
   -1.9795   -1.4375   -0.7932 O   0  0  0  0  0  0  0  0  0  0  0  0
   -0.4122    0.3522    0.8302 O   0  0  0  0  0  0  0  0  0  0  0  0
    1.0508   -4.0861    1.9044 O   0  0  0  0  0  0  0  0  0  0  0  0
    0.2378   -5.1849   -2.6534 O   0  0  0  0  0  0  0  0  0  0  0  0
   -3.2311    3.1036   -2.4207 O   0  0  0  0  0  0  0  0  0  0  0  0
   -6.2231    2.2387    1.2174 O   0  0  0  0  0  0  0  0  0  0  0  0
   -5.4554    3.8111   -0.9292 O   0  0  0  0  0  0  0  0  0  0  0  0
    0.6437    0.7609    2.8439 O   0  0  0  0  0  0  0  0  0  0  0  0
    7.6770    2.2370   -1.6179 O   0  0  0  0  0  0  0  0  0  0  0  0
   -1.3749   -0.5259    1.4148 C   0  0  1  0  0  0  0  0  0  0  0  0
   -2.4896   -0.8318    0.4057 C   0  0  1  0  0  0  0  0  0  0  0  0
   -0.6862   -1.8274    1.8205 C   0  0  0  0  0  0  0  0  0  0  0  0
   -0.4558   -2.7132    0.6258 C   0  0  0  0  0  0  0  0  0  0  0  0
   -3.2837    0.4108    0.0482 C   0  0  0  0  0  0  0  0  0  0  0  0
   -1.1101   -2.4780   -0.5900 C   0  0  0  0  0  0  0  0  0  0  0  0
    0.4132   -3.8077    0.7309 C   0  0  0  0  0  0  0  0  0  0  0  0
   -0.8665   -3.3003   -1.6933 C   0  0  0  0  0  0  0  0  0  0  0  0
   -4.4023    0.7621    0.8018 C   0  0  0  0  0  0  0  0  0  0  0  0
   -2.8932    1.1985   -1.0337 C   0  0  0  0  0  0  0  0  0  0  0  0
    0.6445   -4.6361   -0.3678 C   0  0  0  0  0  0  0  0  0  0  0  0
    0.0081   -4.3798   -1.5803 C   0  0  0  0  0  0  0  0  0  0  0  0
   -3.6235    2.3405   -1.3627 C   0  0  0  0  0  0  0  0  0  0  0  0
   -5.1327    1.9041    0.4727 C   0  0  0  0  0  0  0  0  0  0  0  0
    0.6430    0.6794    1.6258 C   0  0  0  0  0  0  0  0  0  0  0  0
   -4.7432    2.6932   -0.6095 C   0  0  0  0  0  0  0  0  0  0  0  0
    1.8093    0.9253    0.7477 C   0  0  0  0  0  0  0  0  0  0  0  0
    2.9886    1.2563    1.2928 C   0  0  0  0  0  0  0  0  0  0  0  0
    4.2210    1.5147    0.5275 C   0  0  0  0  0  0  0  0  0  0  0  0
    4.1303    1.8306   -0.8183 C   0  0  0  0  0  0  0  0  0  0  0  0
    5.4464    1.4361    1.1690 C   0  0  0  0  0  0  0  0  0  0  0  0
    5.2973    2.0745   -1.5426 C   0  0  0  0  0  0  0  0  0  0  0  0
    6.6133    1.6801    0.4447 C   0  0  0  0  0  0  0  0  0  0  0  0
    6.5388    1.9993   -0.9111 C   0  0  0  0  0  0  0  0  0  0  0  0
   -1.7953   -0.0341    2.3017 H   0  0  0  0  0  0  0  0  0  0  0  0
   -3.1939   -1.5540    0.8445 H   0  0  0  0  0  0  0  0  0  0  0  0
   -1.3462   -2.3739    2.5069 H   0  0  0  0  0  0  0  0  0  0  0  0
    0.2597   -1.6611    2.3433 H   0  0  0  0  0  0  0  0  0  0  0  0
   -1.3675   -3.0981   -2.6371 H   0  0  0  0  0  0  0  0  0  0  0  0
   -4.7031    0.1474    1.6468 H   0  0  0  0  0  0  0  0  0  0  0  0
   -2.0162    0.9372   -1.6205 H   0  0  0  0  0  0  0  0  0  0  0  0
    1.3216   -5.4830   -0.2869 H   0  0  0  0  0  0  0  0  0  0  0  0
    1.6075   -4.8747    1.7864 H   0  0  0  0  0  0  0  0  0  0  0  0
    1.6567    0.7997   -0.3180 H   0  0  0  0  0  0  0  0  0  0  0  0
   -0.2846   -4.8619   -3.4077 H   0  0  0  0  0  0  0  0  0  0  0  0
   -2.4386    2.7074   -2.8219 H   0  0  0  0  0  0  0  0  0  0  0  0
   -6.3401    1.5794    1.9228 H   0  0  0  0  0  0  0  0  0  0  0  0
   -5.0392    4.2295   -1.7028 H   0  0  0  0  0  0  0  0  0  0  0  0
    3.0861    1.3399    2.3729 H   0  0  0  0  0  0  0  0  0  0  0  0
    3.1859    1.9215   -1.3453 H   0  0  0  0  0  0  0  0  0  0  0  0
    5.5210    1.1871    2.2242 H   0  0  0  0  0  0  0  0  0  0  0  0
    5.2260    2.3269   -2.5973 H   0  0  0  0  0  0  0  0  0  0  0  0
    7.5775    1.6195    0.9420 H   0  0  0  0  0  0  0  0  0  0  0  0
    7.4393    2.4421   -2.5385 H   0  0  0  0  0  0  0  0  0  0  0  0
  1 11  1  0  0  0  0
  1 15  1  0  0  0  0
  2 10  1  0  0  0  0
  2 24  1  0  0  0  0
  3 16  1  0  0  0  0
  3 42  1  0  0  0  0
  4 21  1  0  0  0  0
  4 44  1  0  0  0  0
  5 22  1  0  0  0  0
  5 45  1  0  0  0  0
  6 23  1  0  0  0  0
  6 46  1  0  0  0  0
  7 25  1  0  0  0  0
  7 47  1  0  0  0  0
  8 24  2  0  0  0  0
  9 33  1  0  0  0  0
  9 53  1  0  0  0  0
 10 11  1  0  0  0  0
 10 12  1  0  0  0  0
 10 34  1  0  0  0  0
 11 14  1  0  0  0  0
 11 35  1  0  0  0  0
 12 13  1  0  0  0  0
 12 36  1  0  0  0  0
 12 37  1  0  0  0  0
 13 15  1  0  0  0  0
 13 16  2  0  0  0  0
 14 18  2  0  0  0  0
 14 19  1  0  0  0  0
 15 17  2  0  0  0  0
 16 20  1  0  0  0  0
 17 21  1  0  0  0  0
 17 38  1  0  0  0  0
 18 23  1  0  0  0  0
 18 39  1  0  0  0  0
 19 22  2  0  0  0  0
 19 40  1  0  0  0  0
 20 21  2  0  0  0  0
 20 41  1  0  0  0  0
 22 25  1  0  0  0  0
 23 25  2  0  0  0  0
 24 26  1  0  0  0  0
 26 27  2  0  0  0  0
 26 43  1  0  0  0  0
 27 28  1  0  0  0  0
 27 48  1  0  0  0  0
 28 29  2  0  0  0  0
 28 30  1  0  0  0  0
 29 31  1  0  0  0  0
 29 49  1  0  0  0  0
 30 32  2  0  0  0  0
 30 50  1  0  0  0  0
 31 33  2  0  0  0  0
 31 51  1  0  0  0  0
 32 33  1  0  0  0  0
 32 52  1  0  0  0  0
M  END
> <PUBCHEM_COMPOUND_CID>
6474788

> <PUBCHEM_CONFORMER_RMSD>
0.8

> <PUBCHEM_CONFORMER_DIVERSEORDER>
1
33
42
47
54
39
25
6
51
44
36
14
46
53
26
45
24
22
43
11
13
37
29
15
28
3
2
10
38
31
49
8
56
57
48
55
52
27
40
4
34
16
21
50
30
7
35
32
20
5
23
41
17
19
9
12
18

> <PUBCHEM_MMFF94_PARTIAL_CHARGES>
49
1 -0.36
10 0.28
11 0.42
12 0.14
13 -0.14
14 -0.14
15 0.08
16 0.08
17 -0.15
18 -0.15
19 -0.15
2 -0.43
20 -0.15
21 0.08
22 0.08
23 0.08
24 0.71
25 0.08
26 -0.14
27 -0.18
28 0.03
29 -0.15
3 -0.53
30 -0.15
31 -0.15
32 -0.15
33 0.08
38 0.15
39 0.15
4 -0.53
40 0.15
41 0.15
42 0.45
43 0.15
44 0.45
45 0.45
46 0.45
47 0.45
48 0.15
49 0.15
5 -0.53
50 0.15
51 0.15
52 0.15
53 0.45
6 -0.53
7 -0.53
8 -0.57
9 -0.53

> <PUBCHEM_EFFECTIVE_ROTOR_COUNT>
5.8

> <PUBCHEM_PHARMACOPHORE_FEATURES>
12
1 1 acceptor
1 3 donor
1 4 donor
1 5 donor
1 6 donor
1 7 donor
1 8 acceptor
1 9 donor
6 1 10 11 12 13 15 rings
6 13 15 16 17 20 21 rings
6 14 18 19 22 23 25 rings
6 28 29 30 31 32 33 rings

> <PUBCHEM_HEAVY_ATOM_COUNT>
33

> <PUBCHEM_ATOM_DEF_STEREO_COUNT>
2

> <PUBCHEM_ATOM_UDEF_STEREO_COUNT>
0

> <PUBCHEM_BOND_DEF_STEREO_COUNT>
1

> <PUBCHEM_BOND_UDEF_STEREO_COUNT>
0

> <PUBCHEM_ISOTOPIC_ATOM_COUNT>
0

> <PUBCHEM_COMPONENT_COUNT>
1

> <PUBCHEM_CACTVS_TAUTO_COUNT>
198

> <PUBCHEM_CONFORMER_ID>
0062CC2400000001

> <PUBCHEM_MMFF94_ENERGY>
98.3171

> <PUBCHEM_FEATURE_SELFOVERLAP>
60.938

> <PUBCHEM_SHAPE_FINGERPRINT>
10165383 225 18342464746829668769
10190108 129 18200308970495846607
10190206 1 18268698571651096679
10305334 12 14783257736328714422
10369192 42 18408328787257063437
105312 117 18341611546637623100
10673678 19 18339081458834189099
10675989 125 18198629826501841352
107951 10 18334864960533152194
11200772 48 18342462594845025856
11578080 2 18267321854560256155
11607047 403 18113345189476290619
11991303 11 18339083799754824502
12160290 23 17905855387957053139
13690498 29 17908713074617374478
13757389 114 18264496250509095500
14040221 310 17900832858134907564
14659021 117 17764569312039858650
14675019 173 16904981657020386489
14713325 29 18115873069244444099
14856354 85 17313954154840826456
15160629 57 18117833305656868930
15163728 17 18335704901369389405
15230672 131 18408887326901343158
15357212 105 17910683068959399361
15439362 3 18191302672012736337
15463212 79 18190163771450619178
19309040 13 16807037505074038228
19958102 18 18128812117726855870
20642791 178 18267004094719491522
21756936 100 17676486193908553136
24771750 20 18341616949638247799
25019877 29 18269848656481756007
3298306 158 18411136909620249882
3388396 114 16964927584828339148
3411729 13 18263079912556179737
3610482 184 17677059070095677036
4015057 19 16414917581901006824
4394409 98 18272646840755011504
44062 13 18126571360838356802
44249763 50 18194958763715474584
44802255 64 18264503921858457382
46194498 28 17906717121858549869
484985 159 17201102502238847530
508706 21 18055923332133543846
5219985 13 18408039606739343004
5265222 85 18336833112348711784
58260988 587 18267878177184103521
6523845 18 18131070476451273305
6669772 16 18272656714199445030

> <PUBCHEM_SHAPE_MULTIPOLES>
626.3
13.94
6.55
2.2
19.95
9.69
0.16
-23.59
3.58
-3.75
3.65
0.3
0.63
-0.11

> <PUBCHEM_SHAPE_SELFOVERLAP>
1383.48

> <PUBCHEM_SHAPE_VOLUME>
333.2

> <PUBCHEM_COORDINATE_TYPE>
2
5
10

$$$$
