44257105
  -OEChem-02222212263D

 50 53  0     1  0  0  0  0  0999 V2000
    3.0964    0.3342    0.8443 O   0  0  0  0  0  0  0  0  0  0  0  0
    2.3124    1.6948   -2.5052 O   0  0  0  0  0  0  0  0  0  0  0  0
    6.2305   -1.6576   -2.2648 O   0  0  0  0  0  0  0  0  0  0  0  0
   -2.0609    0.7972    0.7783 O   0  0  0  0  0  0  0  0  0  0  0  0
    6.3041   -2.8023    2.3529 O   0  0  0  0  0  0  0  0  0  0  0  0
   -2.2578    3.4921    1.4296 O   0  0  0  0  0  0  0  0  0  0  0  0
   -2.5213    1.3268   -1.4442 O   0  0  0  0  0  0  0  0  0  0  0  0
   -5.5338   -2.2887    2.2568 O   0  0  0  0  0  0  0  0  0  0  0  0
   -6.7633   -1.3834   -2.2822 O   0  0  0  0  0  0  0  0  0  0  0  0
   -7.2490   -2.6776    0.1172 O   0  0  0  0  0  0  0  0  0  0  0  0
    2.6674    0.6931   -1.5578 C   0  0  2  0  0  0  0  0  0  0  0  0
    2.7275    1.3030   -0.1504 C   0  0  1  0  0  0  0  0  0  0  0  0
    4.0401    0.1355   -1.9251 C   0  0  0  0  0  0  0  0  0  0  0  0
    4.6314   -0.6368   -0.7851 C   0  0  0  0  0  0  0  0  0  0  0  0
    1.3916    1.8860    0.2713 C   0  0  0  0  0  0  0  0  0  0  0  0
    4.1421   -0.4870    0.5170 C   0  0  0  0  0  0  0  0  0  0  0  0
    5.7092   -1.5028   -1.0137 C   0  0  0  0  0  0  0  0  0  0  0  0
    4.6979   -1.2222    1.5675 C   0  0  0  0  0  0  0  0  0  0  0  0
    0.2621    1.0697    0.3320 C   0  0  0  0  0  0  0  0  0  0  0  0
    1.2931    3.2383    0.5990 C   0  0  0  0  0  0  0  0  0  0  0  0
    6.2708   -2.2271    0.0381 C   0  0  0  0  0  0  0  0  0  0  0  0
    5.7624   -2.0897    1.3277 C   0  0  0  0  0  0  0  0  0  0  0  0
   -0.9657    1.6054    0.7206 C   0  0  0  0  0  0  0  0  0  0  0  0
    0.0652    3.7741    0.9874 C   0  0  0  0  0  0  0  0  0  0  0  0
   -1.0642    2.9577    1.0483 C   0  0  0  0  0  0  0  0  0  0  0  0
   -2.7877    0.7296   -0.4121 C   0  0  0  0  0  0  0  0  0  0  0  0
   -3.9631   -0.1676   -0.2722 C   0  0  0  0  0  0  0  0  0  0  0  0
   -4.8253   -0.3604   -1.3517 C   0  0  0  0  0  0  0  0  0  0  0  0
   -4.2044   -0.8175    0.9382 C   0  0  0  0  0  0  0  0  0  0  0  0
   -5.3082   -1.6603    1.0691 C   0  0  0  0  0  0  0  0  0  0  0  0
   -5.9290   -1.2031   -1.2206 C   0  0  0  0  0  0  0  0  0  0  0  0
   -6.1705   -1.8529   -0.0102 C   0  0  0  0  0  0  0  0  0  0  0  0
    1.9271   -0.1149   -1.6070 H   0  0  0  0  0  0  0  0  0  0  0  0
    3.4780    2.1063   -0.1312 H   0  0  0  0  0  0  0  0  0  0  0  0
    4.7209    0.9529   -2.1959 H   0  0  0  0  0  0  0  0  0  0  0  0
    3.9351   -0.4959   -2.8160 H   0  0  0  0  0  0  0  0  0  0  0  0
    4.2994   -1.1104    2.5733 H   0  0  0  0  0  0  0  0  0  0  0  0
    0.3282    0.0118    0.0906 H   0  0  0  0  0  0  0  0  0  0  0  0
    2.1636    3.8872    0.5565 H   0  0  0  0  0  0  0  0  0  0  0  0
    2.3009    1.2762   -3.3829 H   0  0  0  0  0  0  0  0  0  0  0  0
    7.1040   -2.9026   -0.1401 H   0  0  0  0  0  0  0  0  0  0  0  0
    0.0025    4.8292    1.2400 H   0  0  0  0  0  0  0  0  0  0  0  0
    6.9657   -2.2932   -2.2283 H   0  0  0  0  0  0  0  0  0  0  0  0
    5.8300   -2.5843    3.1738 H   0  0  0  0  0  0  0  0  0  0  0  0
   -2.1356    4.4387    1.6167 H   0  0  0  0  0  0  0  0  0  0  0  0
   -4.6424    0.1432   -2.2978 H   0  0  0  0  0  0  0  0  0  0  0  0
   -3.5497   -0.6863    1.7954 H   0  0  0  0  0  0  0  0  0  0  0  0
   -4.8373   -2.0380    2.8875 H   0  0  0  0  0  0  0  0  0  0  0  0
   -6.4405   -0.8563   -3.0332 H   0  0  0  0  0  0  0  0  0  0  0  0
   -7.2546   -3.0380    1.0210 H   0  0  0  0  0  0  0  0  0  0  0  0
  1 12  1  0  0  0  0
  1 16  1  0  0  0  0
  2 11  1  0  0  0  0
  2 40  1  0  0  0  0
  3 17  1  0  0  0  0
  3 43  1  0  0  0  0
  4 23  1  0  0  0  0
  4 26  1  0  0  0  0
  5 22  1  0  0  0  0
  5 44  1  0  0  0  0
  6 25  1  0  0  0  0
  6 45  1  0  0  0  0
  7 26  2  0  0  0  0
  8 30  1  0  0  0  0
  8 48  1  0  0  0  0
  9 31  1  0  0  0  0
  9 49  1  0  0  0  0
 10 32  1  0  0  0  0
 10 50  1  0  0  0  0
 11 12  1  0  0  0  0
 11 13  1  0  0  0  0
 11 33  1  0  0  0  0
 12 15  1  0  0  0  0
 12 34  1  0  0  0  0
 13 14  1  0  0  0  0
 13 35  1  0  0  0  0
 13 36  1  0  0  0  0
 14 16  1  0  0  0  0
 14 17  2  0  0  0  0
 15 19  2  0  0  0  0
 15 20  1  0  0  0  0
 16 18  2  0  0  0  0
 17 21  1  0  0  0  0
 18 22  1  0  0  0  0
 18 37  1  0  0  0  0
 19 23  1  0  0  0  0
 19 38  1  0  0  0  0
 20 24  2  0  0  0  0
 20 39  1  0  0  0  0
 21 22  2  0  0  0  0
 21 41  1  0  0  0  0
 23 25  2  0  0  0  0
 24 25  1  0  0  0  0
 24 42  1  0  0  0  0
 26 27  1  0  0  0  0
 27 28  2  0  0  0  0
 27 29  1  0  0  0  0
 28 31  1  0  0  0  0
 28 46  1  0  0  0  0
 29 30  2  0  0  0  0
 29 47  1  0  0  0  0
 30 32  1  0  0  0  0
 31 32  2  0  0  0  0
M  END
> <PUBCHEM_COMPOUND_CID>
44257105

> <PUBCHEM_CONFORMER_RMSD>
0.8

> <PUBCHEM_CONFORMER_DIVERSEORDER>
1
217
466
434
107
295
330
437
33
387
148
262
395
374
171
290
447
156
336
8
320
140
151
102
124
368
178
155
44
423
439
130
83
364
451
84
341
380
187
404
450
6
163
10
220
234
92
149
5
418
334
441
203
407
239
256
180
263
297
362
204
416
363
308
181
243
284
74
332
231
129
111
277
18
421
91
212
232
317
99
383
160
4
211
259
218
417
193
45
314
208
260
152
53
191
313
251
436
440
82
462
298
54
109
136
340
162
329
125
343
408
359
78
57
412
85
402
233
46
169
266
190
70
278
58
449
274
56
292
15
354
81
227
245
76
7
3
337
463
385
255
397
177
264
311
55
265
224
281
356
325
257
210
446
39
382
235
2
409
106
63
388
119
13
67
51
236
123
201
367
381
315
406
415
355
50
19
168
59
445
189
283
422
47
432
428
433
185
198
43
223
321
120
333
454
357
88
175
247
166
75
378
403
29
228
275
86
414
400
345
64
252
349
128
384
375
303
52
405
351
453
261
304
157
386
65
286
27
464
352
456
225
270
135
399
35
327
103
430
96
250
98
370
344
60
145
240
293
16
139
410
122
326
306
207
431
30
312
146
87
200
289
170
49
465
158
335
153
424
20
21
215
258
419
144
435
110
159
442
413
167
222
322
202
391
183
179
427
137
48
396
448
138
94
350
392
276
248
316
379
455
112
126
253
366
301
97
390
319
323
246
372
12
242
457
219
95
206
89
195
14
173
205
339
318
299
194
287
66
458
101
134
288
309
282
37
331
376
429
116
273
118
272
24
214
117
324
338
280
365
192
305
307
353
411
142
426
22
127
42
9
401
71
90
461
41
460
213
23
176
285
389
143
393
108
328
132
443
79
209
221
147
188
452
197
216
17
184
348
438
25
32
347
199
291
40
36
373
196
11
361
346
161
34
31
294
164
237
131
398
141
62
369
113
310
115
267
165
459
229
186
360
61
80
174
271
377
358
420
300
68
238
114
269
69
38
150
100
268
172
249
104
241
444
296
93
28
226
105
425
77
154
302
394
371
182
342
133
244
254
121
230
26
72
73
279

> <PUBCHEM_MMFF94_PARTIAL_CHARGES>
46
1 -0.36
10 -0.53
11 0.28
12 0.42
13 0.14
14 -0.14
15 -0.14
16 0.08
17 0.08
18 -0.15
19 -0.15
2 -0.68
20 -0.15
21 -0.15
22 0.08
23 0.08
24 -0.15
25 0.08
26 0.63
27 0.09
28 -0.15
29 -0.15
3 -0.53
30 0.08
31 0.08
32 0.08
37 0.15
38 0.15
39 0.15
4 -0.23
40 0.4
41 0.15
42 0.15
43 0.45
44 0.45
45 0.45
46 0.15
47 0.15
48 0.45
49 0.45
5 -0.53
50 0.45
6 -0.53
7 -0.57
8 -0.53
9 -0.53

> <PUBCHEM_EFFECTIVE_ROTOR_COUNT>
4.8

> <PUBCHEM_PHARMACOPHORE_FEATURES>
14
1 1 acceptor
1 10 donor
1 2 acceptor
1 2 donor
1 3 donor
1 5 donor
1 6 donor
1 7 acceptor
1 8 donor
1 9 donor
6 1 11 12 13 14 16 rings
6 14 16 17 18 21 22 rings
6 15 19 20 23 24 25 rings
6 27 28 29 30 31 32 rings

> <PUBCHEM_HEAVY_ATOM_COUNT>
32

> <PUBCHEM_ATOM_DEF_STEREO_COUNT>
2

> <PUBCHEM_ATOM_UDEF_STEREO_COUNT>
0

> <PUBCHEM_BOND_DEF_STEREO_COUNT>
0

> <PUBCHEM_BOND_UDEF_STEREO_COUNT>
0

> <PUBCHEM_ISOTOPIC_ATOM_COUNT>
0

> <PUBCHEM_COMPONENT_COUNT>
1

> <PUBCHEM_CACTVS_TAUTO_COUNT>
378

> <PUBCHEM_CONFORMER_ID>
02A34F5100000001

> <PUBCHEM_MMFF94_ENERGY>
101.3778

> <PUBCHEM_FEATURE_SELFOVERLAP>
71.09

> <PUBCHEM_SHAPE_FINGERPRINT>
10 15 12679459820162698427
10050765 1 18341895186136400889
10319926 262 14332865802129178309
105312 117 11097865093983814960
10622 236 17896595081968936322
11135609 99 18334850633207937906
11475781 23 12829499143072527158
11497681 19 18190461563995238498
11809386 21 18336263423132368561
11991303 11 18118975698460323381
1200032 147 9079118903457443332
12166972 35 18187365432653499212
12422481 6 16988850449212757941
12760667 363 18412825785608662803
12975358 362 10375329871852100763
13540713 5 18270422536779799008
1361 87 18115316682201543507
13627167 48 14129325261883691159
13782708 43 18263075682351256327
13947930 73 18339361975917895895
14068700 675 18334853875491267848
14910700 183 17555718160555332232
14951699 99 12535349034053657931
15183329 4 16950279594242750239
15324884 4 16556782946254925436
15530120 55 16299245659861064639
15803439 3 14996288011093767000
16992828 155 15231843718923126291
17134984 74 17822577200464193978
17686467 74 18412257317202905000
1813 80 17845945125236812261
1979834 28 16558482958043264221
19841028 212 18058163020355991479
20028762 73 18060415820142780686
20691028 202 7853580127614004095
21033648 29 11887411213531583507
21315764 119 17312812767624695143
21344244 78 16701747154632560849
21585481 104 16153981353595712135
21703447 108 18412822517150003424
23559900 14 17822566222601372125
23569943 247 18408316706110477843
2748736 6 8286204924665921247
2838139 119 11963377562035598815
3004659 81 18260550038836433070
312425 54 16128665136762502887
32027 91 18340199812863287907
34797466 226 17024306538893351853
3862424 121 17314808497425977627
397830 11 13110966452817829391
42767 28 16588023524162169995
437795 139 18113613457022059116
439807 62 18041001752258333283
463206 1 18338796818298315427
4756326 101 15266226814092506017
5104073 3 18060422412753984953
59682541 52 15791724170954843690
6201320 77 17679051333694191587
6697151 62 18129361822629305621
6712543 237 15841550773713733615
7808743 9 8646477518861987776
7970288 3 18344146990186342399

> <PUBCHEM_SHAPE_MULTIPOLES>
599.85
19.05
3.88
2.11
8.2
2.72
0.5
-24.48
1.31
0.32
-1.89
-1.02
-0.77
-1.23

> <PUBCHEM_SHAPE_SELFOVERLAP>
1333.597

> <PUBCHEM_SHAPE_VOLUME>
316.1

> <PUBCHEM_COORDINATE_TYPE>
2
5
10

$$$$
