6478421
  -OEChem-02232223473D

 36 37  0     0  0  0  0  0  0999 V2000
    3.3361   -2.0394   -0.0287 O   0  0  0  0  0  0  0  0  0  0  0  0
    5.7120   -0.7564    0.4860 O   0  0  0  0  0  0  0  0  0  0  0  0
    5.8361    2.0084    0.4125 O   0  0  0  0  0  0  0  0  0  0  0  0
   -6.1312   -1.2448    0.6528 O   0  0  0  0  0  0  0  0  0  0  0  0
   -1.4348   -1.9329   -1.1944 O   0  0  0  0  0  0  0  0  0  0  0  0
   -6.4059    1.5209    0.6727 O   0  0  0  0  0  0  0  0  0  0  0  0
    2.2623    0.0772   -0.3622 C   0  0  0  0  0  0  0  0  0  0  0  0
    3.3883   -0.6760   -0.0674 C   0  0  0  0  0  0  0  0  0  0  0  0
    2.3149    1.4625   -0.4014 C   0  0  0  0  0  0  0  0  0  0  0  0
    4.5960   -0.0291    0.1943 C   0  0  0  0  0  0  0  0  0  0  0  0
    0.9739   -0.5806   -0.6429 C   0  0  0  0  0  0  0  0  0  0  0  0
   -2.7645   -0.2074   -0.3231 C   0  0  0  0  0  0  0  0  0  0  0  0
    4.6632    1.3638    0.1584 C   0  0  0  0  0  0  0  0  0  0  0  0
    3.5225    2.1095   -0.1394 C   0  0  0  0  0  0  0  0  0  0  0  0
   -0.2264   -0.0523   -0.3620 C   0  0  0  0  0  0  0  0  0  0  0  0
   -1.4874   -0.8086   -0.6733 C   0  0  0  0  0  0  0  0  0  0  0  0
   -3.8517   -1.0187    0.0022 C   0  0  0  0  0  0  0  0  0  0  0  0
   -2.9027    1.1805   -0.3137 C   0  0  0  0  0  0  0  0  0  0  0  0
   -5.0768   -0.4420    0.3371 C   0  0  0  0  0  0  0  0  0  0  0  0
   -4.1279    1.7572    0.0209 C   0  0  0  0  0  0  0  0  0  0  0  0
   -5.2150    0.9459    0.3465 C   0  0  0  0  0  0  0  0  0  0  0  0
    3.0190   -2.6378    1.2252 C   0  0  0  0  0  0  0  0  0  0  0  0
    1.4535    2.0759   -0.6500 H   0  0  0  0  0  0  0  0  0  0  0  0
    1.0416   -1.5553   -1.1196 H   0  0  0  0  0  0  0  0  0  0  0  0
    3.5621    3.1950   -0.1751 H   0  0  0  0  0  0  0  0  0  0  0  0
   -0.3106    0.8950    0.1565 H   0  0  0  0  0  0  0  0  0  0  0  0
   -3.7561   -2.1020    0.0024 H   0  0  0  0  0  0  0  0  0  0  0  0
   -2.0941    1.8483   -0.5952 H   0  0  0  0  0  0  0  0  0  0  0  0
   -4.2244    2.8397    0.0168 H   0  0  0  0  0  0  0  0  0  0  0  0
    2.0396   -2.3041    1.5819 H   0  0  0  0  0  0  0  0  0  0  0  0
    3.7872   -2.4022    1.9685 H   0  0  0  0  0  0  0  0  0  0  0  0
    2.9883   -3.7222    1.0885 H   0  0  0  0  0  0  0  0  0  0  0  0
    6.4492   -0.1400    0.6385 H   0  0  0  0  0  0  0  0  0  0  0  0
    5.6920    2.9678    0.3430 H   0  0  0  0  0  0  0  0  0  0  0  0
   -6.8959   -0.6790    0.8573 H   0  0  0  0  0  0  0  0  0  0  0  0
   -6.3139    2.4881    0.6264 H   0  0  0  0  0  0  0  0  0  0  0  0
  1  8  1  0  0  0  0
  1 22  1  0  0  0  0
  2 10  1  0  0  0  0
  2 33  1  0  0  0  0
  3 13  1  0  0  0  0
  3 34  1  0  0  0  0
  4 19  1  0  0  0  0
  4 35  1  0  0  0  0
  5 16  2  0  0  0  0
  6 21  1  0  0  0  0
  6 36  1  0  0  0  0
  7  8  2  0  0  0  0
  7  9  1  0  0  0  0
  7 11  1  0  0  0  0
  8 10  1  0  0  0  0
  9 14  2  0  0  0  0
  9 23  1  0  0  0  0
 10 13  2  0  0  0  0
 11 15  2  0  0  0  0
 11 24  1  0  0  0  0
 12 16  1  0  0  0  0
 12 17  2  0  0  0  0
 12 18  1  0  0  0  0
 13 14  1  0  0  0  0
 14 25  1  0  0  0  0
 15 16  1  0  0  0  0
 15 26  1  0  0  0  0
 17 19  1  0  0  0  0
 17 27  1  0  0  0  0
 18 20  2  0  0  0  0
 18 28  1  0  0  0  0
 19 21  2  0  0  0  0
 20 21  1  0  0  0  0
 20 29  1  0  0  0  0
 22 30  1  0  0  0  0
 22 31  1  0  0  0  0
 22 32  1  0  0  0  0
M  END
> <PUBCHEM_COMPOUND_CID>
6478421

> <PUBCHEM_CONFORMER_RMSD>
0.6

> <PUBCHEM_CONFORMER_DIVERSEORDER>
1
22
35
15
5
68
59
11
24
4
3
58
21
80
85
89
87
60
53
19
30
23
45
66
7
26
49
18
81
40
20
83
46
25
72
70
54
44
17
64
73
52
69
93
90
29
16
28
36
42
39
38
84
6
71
33
14
37
77
74
75
88
55
50
48
56
9
65
76
82
57
47
91
2
32
51
78
79
92
27
41
34
31
62
10
43
67
86
8
12
61
13
63

> <PUBCHEM_MMFF94_PARTIAL_CHARGES>
33
1 -0.36
10 0.08
11 -0.18
12 0.09
13 0.08
14 -0.15
15 -0.14
16 0.47
17 -0.15
18 -0.15
19 0.08
2 -0.53
20 -0.15
21 0.08
22 0.28
23 0.15
24 0.15
25 0.15
26 0.15
27 0.15
28 0.15
29 0.15
3 -0.53
33 0.45
34 0.45
35 0.45
36 0.45
4 -0.53
5 -0.57
6 -0.53
7 0.03
8 0.08
9 -0.15

> <PUBCHEM_EFFECTIVE_ROTOR_COUNT>
4

> <PUBCHEM_PHARMACOPHORE_FEATURES>
8
1 1 acceptor
1 2 donor
1 3 donor
1 4 donor
1 5 acceptor
1 6 donor
6 12 17 18 19 20 21 rings
6 7 8 9 10 13 14 rings

> <PUBCHEM_HEAVY_ATOM_COUNT>
22

> <PUBCHEM_ATOM_DEF_STEREO_COUNT>
0

> <PUBCHEM_ATOM_UDEF_STEREO_COUNT>
0

> <PUBCHEM_BOND_DEF_STEREO_COUNT>
1

> <PUBCHEM_BOND_UDEF_STEREO_COUNT>
0

> <PUBCHEM_ISOTOPIC_ATOM_COUNT>
0

> <PUBCHEM_COMPONENT_COUNT>
1

> <PUBCHEM_CACTVS_TAUTO_COUNT>
264

> <PUBCHEM_CONFORMER_ID>
0062DA5500000001

> <PUBCHEM_MMFF94_ENERGY>
76.6794

> <PUBCHEM_FEATURE_SELFOVERLAP>
40.606

> <PUBCHEM_SHAPE_FINGERPRINT>
10 15 18336823203932857368
10354089 29 18410294726810550908
10595046 47 18411980286741573331
10670039 82 16701475493397788272
11089746 13 17775275089071250100
12107183 9 17760928446376661961
12236239 1 18343582949305459054
12516196 113 12179849415796983279
12596602 18 18411420613690047851
12670546 56 18333729100828764727
12788726 201 17275113798994092969
12892183 10 18261114058532259751
13073987 5 18409450276242341195
13167372 99 18343304742825604952
13167823 11 18409446968933289995
13533116 47 18041562434247495875
13785724 45 17693662515365618414
14251732 16 18410575136603723667
14251764 18 18335416898701622388
14341114 176 18409173198937724965
14849402 71 18262237837332517044
15188451 53 16806175492194884603
15196674 1 18412265030141228917
15475509 35 16516509033856546568
15475509 84 18128528263950550536
17844677 252 18410300181250289613
1813 80 16660647340681027342
18222031 100 15140680306196448783
21065198 48 18411414029426308239
21065199 12 18333732399141868167
21267235 1 18411141308225767638
21421861 104 18188196608173850114
21859007 373 17460868493958701637
23402539 116 17988637502321434493
23559900 14 17987528008789184511
239999 70 18342463608547284134
312425 54 17749116556737940441
3421961 26 18263076614137821450
351380 180 18408325480063173513
351380 3 12107787423707581025
3545911 37 18342460365472130212
4073 2 18113625628574520859
4214541 1 18410292506254423605
4340502 62 18186522115835706378
474 4 18188207723301493300
5104073 3 18336274457667918627
542803 24 17346599689876733524
5758199 1 18335418032836986048
8272917 22 18412546488159714054
960060 61 11743840296142600664

> <PUBCHEM_SHAPE_MULTIPOLES>
417.53
15.56
2.33
0.85
7.74
0.27
0
-3.8
4.28
-1.67
0.35
0.06
0.26
-0.6

> <PUBCHEM_SHAPE_SELFOVERLAP>
903.35

> <PUBCHEM_SHAPE_VOLUME>
228.9

> <PUBCHEM_COORDINATE_TYPE>
2
5
10

$$$$
