182999
  -OEChem-02242200183D

 57 62  0     1  0  0  0  0  0999 V2000
    1.0503    2.7582    0.6229 O   0  0  0  0  0  0  0  0  0  0  0  0
   -3.9025   -0.0446    1.0515 O   0  0  0  0  0  0  0  0  0  0  0  0
   -2.8180   -3.4038    1.4097 O   0  0  0  0  0  0  0  0  0  0  0  0
   -3.0864    5.0275   -0.2302 O   0  0  0  0  0  0  0  0  0  0  0  0
    0.7785   -2.5597    4.3645 O   0  0  0  0  0  0  0  0  0  0  0  0
    6.4489   -0.1050   -0.7526 O   0  0  0  0  0  0  0  0  0  0  0  0
    0.4770   -1.9549   -5.2002 O   0  0  0  0  0  0  0  0  0  0  0  0
    0.1415    0.4884    0.5242 C   0  0  1  0  0  0  0  0  0  0  0  0
   -0.9072    1.5438    0.3481 C   0  0  0  0  0  0  0  0  0  0  0  0
    1.2953    1.3951    1.0577 C   0  0  1  0  0  0  0  0  0  0  0  0
   -2.2322   -1.1839   -0.2718 C   0  0  2  0  0  0  0  0  0  0  0  0
   -0.2775   -0.7067    1.3584 C   0  0  0  0  0  0  0  0  0  0  0  0
   -3.0235    0.1381   -0.0713 C   0  0  2  0  0  0  0  0  0  0  0  0
   -2.2652    1.4388    0.0683 C   0  0  0  0  0  0  0  0  0  0  0  0
   -1.3840   -1.4973    0.9663 C   0  0  0  0  0  0  0  0  0  0  0  0
   -0.3006    2.7971    0.3988 C   0  0  0  0  0  0  0  0  0  0  0  0
    2.6731    0.9936    0.5737 C   0  0  0  0  0  0  0  0  0  0  0  0
   -1.5019   -1.3920   -1.6010 C   0  0  0  0  0  0  0  0  0  0  0  0
   -2.9838    2.6415   -0.1089 C   0  0  0  0  0  0  0  0  0  0  0  0
    0.4356   -1.0997    2.5062 C   0  0  0  0  0  0  0  0  0  0  0  0
   -1.7485   -2.6204    1.7403 C   0  0  0  0  0  0  0  0  0  0  0  0
   -0.9931    3.9778    0.2057 C   0  0  0  0  0  0  0  0  0  0  0  0
   -2.3571    3.8937   -0.0411 C   0  0  0  0  0  0  0  0  0  0  0  0
    0.0623   -2.2155    3.2590 C   0  0  0  0  0  0  0  0  0  0  0  0
   -1.0321   -2.9755    2.8779 C   0  0  0  0  0  0  0  0  0  0  0  0
    3.6942    0.7595    1.4939 C   0  0  0  0  0  0  0  0  0  0  0  0
    2.9196    0.8593   -0.7923 C   0  0  0  0  0  0  0  0  0  0  0  0
   -0.8813   -2.6095   -1.8671 C   0  0  0  0  0  0  0  0  0  0  0  0
   -1.4613   -0.3620   -2.5371 C   0  0  0  0  0  0  0  0  0  0  0  0
    4.9633    0.3906    1.0478 C   0  0  0  0  0  0  0  0  0  0  0  0
    4.1888    0.4903   -1.2384 C   0  0  0  0  0  0  0  0  0  0  0  0
   -0.2152   -2.7985   -3.0780 C   0  0  0  0  0  0  0  0  0  0  0  0
   -0.7954   -0.5511   -3.7480 C   0  0  0  0  0  0  0  0  0  0  0  0
    5.2106    0.2560   -0.3183 C   0  0  0  0  0  0  0  0  0  0  0  0
   -0.1723   -1.7692   -4.0185 C   0  0  0  0  0  0  0  0  0  0  0  0
    0.4127    0.1135   -0.4666 H   0  0  0  0  0  0  0  0  0  0  0  0
    1.2844    1.4525    2.1541 H   0  0  0  0  0  0  0  0  0  0  0  0
   -3.0430   -1.9198   -0.3422 H   0  0  0  0  0  0  0  0  0  0  0  0
   -3.6921    0.2442   -0.9367 H   0  0  0  0  0  0  0  0  0  0  0  0
   -4.0519    2.6011   -0.3180 H   0  0  0  0  0  0  0  0  0  0  0  0
    1.3083   -0.5444    2.8341 H   0  0  0  0  0  0  0  0  0  0  0  0
   -0.4820    4.9337    0.2487 H   0  0  0  0  0  0  0  0  0  0  0  0
   -3.4944    0.3653    1.8331 H   0  0  0  0  0  0  0  0  0  0  0  0
   -1.3249   -3.8438    3.4623 H   0  0  0  0  0  0  0  0  0  0  0  0
    3.5177    0.8623    2.5612 H   0  0  0  0  0  0  0  0  0  0  0  0
    2.1449    1.0553   -1.5284 H   0  0  0  0  0  0  0  0  0  0  0  0
   -0.9096   -3.4256   -1.1511 H   0  0  0  0  0  0  0  0  0  0  0  0
   -1.9438    0.5957   -2.3904 H   0  0  0  0  0  0  0  0  0  0  0  0
   -2.7443   -3.6388    0.4695 H   0  0  0  0  0  0  0  0  0  0  0  0
    5.7508    0.2111    1.7748 H   0  0  0  0  0  0  0  0  0  0  0  0
    4.3764    0.3908   -2.3040 H   0  0  0  0  0  0  0  0  0  0  0  0
    0.2649   -3.7528   -3.2772 H   0  0  0  0  0  0  0  0  0  0  0  0
   -0.7685    0.2527   -4.4788 H   0  0  0  0  0  0  0  0  0  0  0  0
   -2.4973    5.7975   -0.1521 H   0  0  0  0  0  0  0  0  0  0  0  0
    1.5054   -1.9245    4.4826 H   0  0  0  0  0  0  0  0  0  0  0  0
    7.0302   -0.2264    0.0177 H   0  0  0  0  0  0  0  0  0  0  0  0
    0.8487   -2.8536   -5.2177 H   0  0  0  0  0  0  0  0  0  0  0  0
  1 10  1  0  0  0  0
  1 16  1  0  0  0  0
  2 13  1  0  0  0  0
  2 43  1  0  0  0  0
  3 21  1  0  0  0  0
  3 49  1  0  0  0  0
  4 23  1  0  0  0  0
  4 54  1  0  0  0  0
  5 24  1  0  0  0  0
  5 55  1  0  0  0  0
  6 34  1  0  0  0  0
  6 56  1  0  0  0  0
  7 35  1  0  0  0  0
  7 57  1  0  0  0  0
  8  9  1  0  0  0  0
  8 10  1  0  0  0  0
  8 12  1  0  0  0  0
  8 36  1  0  0  0  0
  9 14  2  0  0  0  0
  9 16  1  0  0  0  0
 10 17  1  0  0  0  0
 10 37  1  0  0  0  0
 11 13  1  0  0  0  0
 11 15  1  0  0  0  0
 11 18  1  0  0  0  0
 11 38  1  0  0  0  0
 12 15  2  0  0  0  0
 12 20  1  0  0  0  0
 13 14  1  0  0  0  0
 13 39  1  0  0  0  0
 14 19  1  0  0  0  0
 15 21  1  0  0  0  0
 16 22  2  0  0  0  0
 17 26  2  0  0  0  0
 17 27  1  0  0  0  0
 18 28  2  0  0  0  0
 18 29  1  0  0  0  0
 19 23  2  0  0  0  0
 19 40  1  0  0  0  0
 20 24  2  0  0  0  0
 20 41  1  0  0  0  0
 21 25  2  0  0  0  0
 22 23  1  0  0  0  0
 22 42  1  0  0  0  0
 24 25  1  0  0  0  0
 25 44  1  0  0  0  0
 26 30  1  0  0  0  0
 26 45  1  0  0  0  0
 27 31  2  0  0  0  0
 27 46  1  0  0  0  0
 28 32  1  0  0  0  0
 28 47  1  0  0  0  0
 29 33  2  0  0  0  0
 29 48  1  0  0  0  0
 30 34  2  0  0  0  0
 30 50  1  0  0  0  0
 31 34  1  0  0  0  0
 31 51  1  0  0  0  0
 32 35  2  0  0  0  0
 32 52  1  0  0  0  0
 33 35  1  0  0  0  0
 33 53  1  0  0  0  0
M  END
> <PUBCHEM_COMPOUND_CID>
182999

> <PUBCHEM_CONFORMER_RMSD>
0.8

> <PUBCHEM_CONFORMER_DIVERSEORDER>
1
2
3

> <PUBCHEM_MMFF94_PARTIAL_CHARGES>
53
1 -0.36
10 0.42
11 0.29
12 -0.14
13 0.42
14 -0.14
15 -0.14
16 0.08
17 -0.14
18 -0.14
19 -0.15
2 -0.68
20 -0.15
21 0.08
22 -0.15
23 0.08
24 0.08
25 -0.15
26 -0.15
27 -0.15
28 -0.15
29 -0.15
3 -0.53
30 -0.15
31 -0.15
32 -0.15
33 -0.15
34 0.08
35 0.08
4 -0.53
40 0.15
41 0.15
42 0.15
43 0.4
44 0.15
45 0.15
46 0.15
47 0.15
48 0.15
49 0.45
5 -0.53
50 0.15
51 0.15
52 0.15
53 0.15
54 0.45
55 0.45
56 0.45
57 0.45
6 -0.53
7 -0.53
8 0.29
9 -0.14

> <PUBCHEM_EFFECTIVE_ROTOR_COUNT>
2.8

> <PUBCHEM_PHARMACOPHORE_FEATURES>
14
1 1 acceptor
1 2 acceptor
1 2 donor
1 3 donor
1 4 donor
1 5 donor
1 6 donor
1 7 donor
5 1 8 9 10 16 rings
6 12 15 20 21 24 25 rings
6 17 26 27 30 31 34 rings
6 18 28 29 32 33 35 rings
6 9 14 16 19 22 23 rings
7 8 9 11 12 13 14 15 rings

> <PUBCHEM_HEAVY_ATOM_COUNT>
35

> <PUBCHEM_ATOM_DEF_STEREO_COUNT>
4

> <PUBCHEM_ATOM_UDEF_STEREO_COUNT>
0

> <PUBCHEM_BOND_DEF_STEREO_COUNT>
0

> <PUBCHEM_BOND_UDEF_STEREO_COUNT>
0

> <PUBCHEM_ISOTOPIC_ATOM_COUNT>
0

> <PUBCHEM_COMPONENT_COUNT>
1

> <PUBCHEM_CACTVS_TAUTO_COUNT>
204

> <PUBCHEM_CONFORMER_ID>
0002CAD700000001

> <PUBCHEM_MMFF94_ENERGY>
124.2086

> <PUBCHEM_FEATURE_SELFOVERLAP>
71.194

> <PUBCHEM_SHAPE_FINGERPRINT>
10165383 225 17241862394464535695
107951 10 18263934232579316892
11578080 2 16904756531887985755
12156800 1 17248985017735438377
12422481 6 17629786679860947583
12788726 201 18115042899284257232
133893 2 17100833393551060562
14114206 34 18116409588011180452
14279260 333 18335136437770126298
14659021 117 18054200367352880448
15274700 242 18263626447508560378
15361156 5 18267581493855558200
20771845 38 17703232810765900686
21716022 299 16822415187878289262
23419403 2 16906714650332901075
238 59 12430562921874193202
266924 78 17172895385545808800
27425 322 18044112175752932036
3298306 158 17700414680901249644
3380486 145 17701814617012514872
376196 1 18055069852969460288
469060 322 17408513400654745348
497634 4 17531538693300501596
57527306 92 18338220640098564309
57527452 28 17274270568091333343
6669772 16 17978803306718073092

> <PUBCHEM_SHAPE_MULTIPOLES>
679.2
6.74
4.86
4.43
13.37
4.32
-1.63
2.18
-0.48
-5.29
-0.6
-0.61
-6.83
0.7

> <PUBCHEM_SHAPE_SELFOVERLAP>
1540.881

> <PUBCHEM_SHAPE_VOLUME>
352.2

> <PUBCHEM_COORDINATE_TYPE>
2
5
10

$$$$
