70680259
  -OEChem-02242200083D

 98103  0     1  0  0  0  0  0999 V2000
   -3.6798    1.2724    0.0621 O   0  0  0  0  0  0  0  0  0  0  0  0
   -1.1858    2.9163    2.1335 O   0  0  0  0  0  0  0  0  0  0  0  0
   -2.9424    4.7972   -0.9457 O   0  0  0  0  0  0  0  0  0  0  0  0
    6.8856   -2.3229   -2.5668 O   0  0  0  0  0  0  0  0  0  0  0  0
    5.1155   -3.2109   -1.4380 O   0  0  0  0  0  0  0  0  0  0  0  0
   -5.1817    2.1497    1.5826 O   0  0  0  0  0  0  0  0  0  0  0  0
  -10.4238   -4.1576   -0.5667 O   0  0  0  0  0  0  0  0  0  0  0  0
    2.1968    0.4574   -1.0655 C   0  0  2  0  0  0  0  0  0  0  0  0
   -0.3376    0.6141   -0.0761 C   0  0  2  0  0  0  0  0  0  0  0  0
    1.1963    0.2183    0.1308 C   0  0  1  0  0  0  0  0  0  0  0  0
    3.7263    0.3672   -0.4859 C   0  0  1  0  0  0  0  0  0  0  0  0
   -0.3942    2.0428   -0.7151 C   0  0  2  0  0  0  0  0  0  0  0  0
    1.9186    1.8424   -1.7083 C   0  0  0  0  0  0  0  0  0  0  0  0
   -1.8310    2.6850   -0.8427 C   0  0  1  0  0  0  0  0  0  0  0  0
    0.4446    2.1136   -2.0073 C   0  0  0  0  0  0  0  0  0  0  0  0
    3.9089   -0.8922    0.3833 C   0  0  0  0  0  0  0  0  0  0  0  0
   -1.0281    0.6491    1.3380 C   0  0  0  0  0  0  0  0  0  0  0  0
    1.4137   -1.1872    0.7300 C   0  0  0  0  0  0  0  0  0  0  0  0
    4.7524    0.3596   -1.6587 C   0  0  0  0  0  0  0  0  0  0  0  0
    5.3178   -1.4336    0.6758 C   0  0  1  0  0  0  0  0  0  0  0  0
    6.3064   -1.2991   -0.5156 C   0  0  1  0  0  0  0  0  0  0  0  0
   -2.7416    2.3007    0.3736 C   0  0  2  0  0  0  0  0  0  0  0  0
    2.0019   -0.6181   -2.1769 C   0  0  0  0  0  0  0  0  0  0  0  0
   -1.9588    1.8406    1.6048 C   0  0  2  0  0  0  0  0  0  0  0  0
   -1.1091   -0.4261   -0.9256 C   0  0  0  0  0  0  0  0  0  0  0  0
    6.1931    0.0520   -1.2417 C   0  0  0  0  0  0  0  0  0  0  0  0
    2.8554   -1.5568    0.8989 C   0  0  0  0  0  0  0  0  0  0  0  0
    4.0665    1.5931    0.4101 C   0  0  0  0  0  0  0  0  0  0  0  0
    5.8686   -0.9230    2.0531 C   0  0  2  0  0  0  0  0  0  0  0  0
   -1.6605    4.2334   -0.8207 C   0  0  0  0  0  0  0  0  0  0  0  0
   -2.5218    2.3631   -2.1876 C   0  0  0  0  0  0  0  0  0  0  0  0
    7.7489   -1.5599   -0.0361 C   0  0  0  0  0  0  0  0  0  0  0  0
    8.2325   -0.6005    1.0504 C   0  0  0  0  0  0  0  0  0  0  0  0
    7.1343   -0.0987    1.9467 C   0  0  0  0  0  0  0  0  0  0  0  0
    6.0124   -2.3862   -1.5321 C   0  0  0  0  0  0  0  0  0  0  0  0
    6.1121   -2.0988    3.0144 C   0  0  0  0  0  0  0  0  0  0  0  0
    7.2723    1.0661    2.6018 C   0  0  0  0  0  0  0  0  0  0  0  0
   -4.8581    1.3230    0.7447 C   0  0  0  0  0  0  0  0  0  0  0  0
   -5.6930    0.1878    0.2908 C   0  0  0  0  0  0  0  0  0  0  0  0
   -6.9140    0.0138    0.8165 C   0  0  0  0  0  0  0  0  0  0  0  0
   -7.8328   -1.0801    0.4549 C   0  0  0  0  0  0  0  0  0  0  0  0
   -7.6619   -1.7654   -0.7480 C   0  0  0  0  0  0  0  0  0  0  0  0
   -8.8740   -1.4294    1.3148 C   0  0  0  0  0  0  0  0  0  0  0  0
   -8.5324   -2.7998   -1.0911 C   0  0  0  0  0  0  0  0  0  0  0  0
   -9.7447   -2.4637    0.9717 C   0  0  0  0  0  0  0  0  0  0  0  0
   -9.5739   -3.1488   -0.2313 C   0  0  0  0  0  0  0  0  0  0  0  0
    1.5202    0.9176    0.9130 H   0  0  0  0  0  0  0  0  0  0  0  0
    0.1441    2.6889   -0.0035 H   0  0  0  0  0  0  0  0  0  0  0  0
    2.4946    1.9576   -2.6343 H   0  0  0  0  0  0  0  0  0  0  0  0
    2.2471    2.6490   -1.0465 H   0  0  0  0  0  0  0  0  0  0  0  0
    0.3814    3.1151   -2.4467 H   0  0  0  0  0  0  0  0  0  0  0  0
    0.0763    1.4243   -2.7723 H   0  0  0  0  0  0  0  0  0  0  0  0
   -1.6018   -0.2769    1.4789 H   0  0  0  0  0  0  0  0  0  0  0  0
   -0.2693    0.6403    2.1301 H   0  0  0  0  0  0  0  0  0  0  0  0
    0.9610   -1.9638    0.1071 H   0  0  0  0  0  0  0  0  0  0  0  0
    0.9324   -1.2514    1.7120 H   0  0  0  0  0  0  0  0  0  0  0  0
    4.7407    1.3295   -2.1712 H   0  0  0  0  0  0  0  0  0  0  0  0
    4.4826   -0.3817   -2.4157 H   0  0  0  0  0  0  0  0  0  0  0  0
    5.1826   -2.5168    0.8234 H   0  0  0  0  0  0  0  0  0  0  0  0
   -3.2999    3.1953    0.6738 H   0  0  0  0  0  0  0  0  0  0  0  0
    2.3844   -1.6003   -1.8839 H   0  0  0  0  0  0  0  0  0  0  0  0
    2.5118   -0.3329   -3.1038 H   0  0  0  0  0  0  0  0  0  0  0  0
    0.9631   -0.7585   -2.4604 H   0  0  0  0  0  0  0  0  0  0  0  0
   -2.6529    1.5474    2.4015 H   0  0  0  0  0  0  0  0  0  0  0  0
   -0.9136   -0.3442   -1.9939 H   0  0  0  0  0  0  0  0  0  0  0  0
   -2.1900   -0.3235   -0.8171 H   0  0  0  0  0  0  0  0  0  0  0  0
   -0.8957   -1.4536   -0.6228 H   0  0  0  0  0  0  0  0  0  0  0  0
    6.8252    0.0772   -2.1386 H   0  0  0  0  0  0  0  0  0  0  0  0
    6.5656    0.8685   -0.6151 H   0  0  0  0  0  0  0  0  0  0  0  0
    3.0306   -2.4505    1.4943 H   0  0  0  0  0  0  0  0  0  0  0  0
    3.3592    1.7322    1.2315 H   0  0  0  0  0  0  0  0  0  0  0  0
    5.0492    1.5045    0.8743 H   0  0  0  0  0  0  0  0  0  0  0  0
    4.1058    2.5226   -0.1662 H   0  0  0  0  0  0  0  0  0  0  0  0
    5.0929   -0.3108    2.5343 H   0  0  0  0  0  0  0  0  0  0  0  0
   -1.0449    4.5914   -1.6512 H   0  0  0  0  0  0  0  0  0  0  0  0
   -1.2109    4.5819    0.1143 H   0  0  0  0  0  0  0  0  0  0  0  0
   -3.5504    2.7416   -2.2151 H   0  0  0  0  0  0  0  0  0  0  0  0
   -2.5812    1.2890   -2.3754 H   0  0  0  0  0  0  0  0  0  0  0  0
   -1.9933    2.8118   -3.0358 H   0  0  0  0  0  0  0  0  0  0  0  0
    8.4658   -1.5179   -0.8667 H   0  0  0  0  0  0  0  0  0  0  0  0
    7.8183   -2.5875    0.3490 H   0  0  0  0  0  0  0  0  0  0  0  0
    8.9941   -1.1081    1.6549 H   0  0  0  0  0  0  0  0  0  0  0  0
    8.7300    0.2506    0.5673 H   0  0  0  0  0  0  0  0  0  0  0  0
   -0.7797    2.6117    2.9628 H   0  0  0  0  0  0  0  0  0  0  0  0
    6.8552   -2.8010    2.6217 H   0  0  0  0  0  0  0  0  0  0  0  0
    5.1837   -2.6535    3.1888 H   0  0  0  0  0  0  0  0  0  0  0  0
    6.4688   -1.7433    3.9879 H   0  0  0  0  0  0  0  0  0  0  0  0
   -2.8372    5.7636   -0.9294 H   0  0  0  0  0  0  0  0  0  0  0  0
    6.4867    1.4506    3.2436 H   0  0  0  0  0  0  0  0  0  0  0  0
    8.1768    1.6587    2.5125 H   0  0  0  0  0  0  0  0  0  0  0  0
    6.7117   -3.0189   -3.2358 H   0  0  0  0  0  0  0  0  0  0  0  0
   -5.2608   -0.4770   -0.4480 H   0  0  0  0  0  0  0  0  0  0  0  0
   -7.2856    0.6991    1.5750 H   0  0  0  0  0  0  0  0  0  0  0  0
   -6.8786   -1.5151   -1.4572 H   0  0  0  0  0  0  0  0  0  0  0  0
   -9.0216   -0.9069    2.2569 H   0  0  0  0  0  0  0  0  0  0  0  0
   -8.3976   -3.3273   -2.0315 H   0  0  0  0  0  0  0  0  0  0  0  0
  -10.5520   -2.7262    1.6501 H   0  0  0  0  0  0  0  0  0  0  0  0
  -11.0823   -4.2633    0.1413 H   0  0  0  0  0  0  0  0  0  0  0  0
  1 22  1  0  0  0  0
  1 38  1  0  0  0  0
  2 24  1  0  0  0  0
  2 84  1  0  0  0  0
  3 30  1  0  0  0  0
  3 88  1  0  0  0  0
  4 35  1  0  0  0  0
  4 91  1  0  0  0  0
  5 35  2  0  0  0  0
  6 38  2  0  0  0  0
  7 46  1  0  0  0  0
  7 98  1  0  0  0  0
  8 10  1  0  0  0  0
  8 11  1  0  0  0  0
  8 13  1  0  0  0  0
  8 23  1  0  0  0  0
  9 10  1  0  0  0  0
  9 12  1  0  0  0  0
  9 17  1  0  0  0  0
  9 25  1  0  0  0  0
 10 18  1  0  0  0  0
 10 47  1  0  0  0  0
 11 16  1  0  0  0  0
 11 19  1  0  0  0  0
 11 28  1  0  0  0  0
 12 14  1  0  0  0  0
 12 15  1  0  0  0  0
 12 48  1  0  0  0  0
 13 15  1  0  0  0  0
 13 49  1  0  0  0  0
 13 50  1  0  0  0  0
 14 22  1  0  0  0  0
 14 30  1  0  0  0  0
 14 31  1  0  0  0  0
 15 51  1  0  0  0  0
 15 52  1  0  0  0  0
 16 20  1  0  0  0  0
 16 27  2  0  0  0  0
 17 24  1  0  0  0  0
 17 53  1  0  0  0  0
 17 54  1  0  0  0  0
 18 27  1  0  0  0  0
 18 55  1  0  0  0  0
 18 56  1  0  0  0  0
 19 26  1  0  0  0  0
 19 57  1  0  0  0  0
 19 58  1  0  0  0  0
 20 21  1  0  0  0  0
 20 29  1  0  0  0  0
 20 59  1  0  0  0  0
 21 26  1  0  0  0  0
 21 32  1  0  0  0  0
 21 35  1  0  0  0  0
 22 24  1  0  0  0  0
 22 60  1  0  0  0  0
 23 61  1  0  0  0  0
 23 62  1  0  0  0  0
 23 63  1  0  0  0  0
 24 64  1  0  0  0  0
 25 65  1  0  0  0  0
 25 66  1  0  0  0  0
 25 67  1  0  0  0  0
 26 68  1  0  0  0  0
 26 69  1  0  0  0  0
 27 70  1  0  0  0  0
 28 71  1  0  0  0  0
 28 72  1  0  0  0  0
 28 73  1  0  0  0  0
 29 34  1  0  0  0  0
 29 36  1  0  0  0  0
 29 74  1  0  0  0  0
 30 75  1  0  0  0  0
 30 76  1  0  0  0  0
 31 77  1  0  0  0  0
 31 78  1  0  0  0  0
 31 79  1  0  0  0  0
 32 33  1  0  0  0  0
 32 80  1  0  0  0  0
 32 81  1  0  0  0  0
 33 34  1  0  0  0  0
 33 82  1  0  0  0  0
 33 83  1  0  0  0  0
 34 37  2  0  0  0  0
 36 85  1  0  0  0  0
 36 86  1  0  0  0  0
 36 87  1  0  0  0  0
 37 89  1  0  0  0  0
 37 90  1  0  0  0  0
 38 39  1  0  0  0  0
 39 40  2  0  0  0  0
 39 92  1  0  0  0  0
 40 41  1  0  0  0  0
 40 93  1  0  0  0  0
 41 42  2  0  0  0  0
 41 43  1  0  0  0  0
 42 44  1  0  0  0  0
 42 94  1  0  0  0  0
 43 45  2  0  0  0  0
 43 95  1  0  0  0  0
 44 46  2  0  0  0  0
 44 96  1  0  0  0  0
 45 46  1  0  0  0  0
 45 97  1  0  0  0  0
M  END
> <PUBCHEM_COMPOUND_CID>
70680259

> <PUBCHEM_CONFORMER_RMSD>
1.2

> <PUBCHEM_CONFORMER_DIVERSEORDER>
1
4
6
3
5
2

> <PUBCHEM_MMFF94_PARTIAL_CHARGES>
43
1 -0.43
11 0.14
16 -0.28
18 0.14
2 -0.68
20 0.14
21 0.06
22 0.28
24 0.28
27 -0.29
29 0.14
3 -0.68
30 0.28
33 0.14
34 -0.28
35 0.66
37 -0.3
38 0.71
39 -0.14
4 -0.65
40 -0.18
41 0.03
42 -0.15
43 -0.15
44 -0.15
45 -0.15
46 0.08
5 -0.57
6 -0.57
7 -0.53
70 0.15
84 0.4
88 0.4
89 0.15
90 0.15
91 0.5
92 0.15
93 0.15
94 0.15
95 0.15
96 0.15
97 0.15
98 0.45

> <PUBCHEM_EFFECTIVE_ROTOR_COUNT>
8.4

> <PUBCHEM_PHARMACOPHORE_FEATURES>
15
1 2 acceptor
1 2 donor
1 3 acceptor
1 3 donor
1 4 acceptor
1 5 acceptor
1 6 acceptor
1 7 donor
3 4 5 35 anion
6 11 16 19 20 21 26 rings
6 20 21 29 32 33 34 rings
6 41 42 43 44 45 46 rings
6 8 10 11 16 18 27 rings
6 8 9 10 12 13 15 rings
6 9 12 14 17 22 24 rings

> <PUBCHEM_HEAVY_ATOM_COUNT>
46

> <PUBCHEM_ATOM_DEF_STEREO_COUNT>
11

> <PUBCHEM_ATOM_UDEF_STEREO_COUNT>
0

> <PUBCHEM_BOND_DEF_STEREO_COUNT>
1

> <PUBCHEM_BOND_UDEF_STEREO_COUNT>
0

> <PUBCHEM_ISOTOPIC_ATOM_COUNT>
0

> <PUBCHEM_COMPONENT_COUNT>
1

> <PUBCHEM_CACTVS_TAUTO_COUNT>
4

> <PUBCHEM_CONFORMER_ID>
04367EC300000001

> <PUBCHEM_MMFF94_ENERGY>
196.5146

> <PUBCHEM_FEATURE_SELFOVERLAP>
76.288

> <PUBCHEM_SHAPE_FINGERPRINT>
10100884 174 18410856572800128731
10162869 55 17240480317228701098
10258705 36 17773329953849222591
11456790 92 15195005994983855578
11497681 19 18411707551960130255
1200032 147 11743844659856020517
12758862 65 18059019496584184523
13692114 37 18408885157341946698
13726171 33 13972812071303784858
13782708 43 18340208475321791260
13811026 1 18201718445048045881
14068700 675 18333454231332965973
14400156 413 14057014840591359750
15350500 16 17967809466451730123
15392192 104 18272934955846145948
16991971 28 18335147518389747199
16993427 108 18334572460965937401
19302320 297 14261349171796172818
19303781 99 18269269231730470071
19841028 212 18260550073866025993
2026 5 18334576824589809403
21130935 74 18058455309347897930
212700 22 18341890832157569679
21987483 16 18265048205588897385
22149856 69 17703522012625497635
23569914 152 11964208728634316848
23569943 247 17620486705808495442
25242607 90 18340485660380385043
2747138 104 17775284937273050409
3178227 256 15411176633465366346
3633792 109 13045939084235274880
397830 11 18130782331063719472
3986486 107 11386363733913881483
406291 66 18409731794617487831
4516262 110 9799147197801108961
474113 269 15213283207042343480
4760202 70 18188219796344072532
508180 173 11242262852790840079
5874358 3 17967805042461686571
6201320 221 14996823434960880632
6697151 62 17603877731660428037

> <PUBCHEM_SHAPE_MULTIPOLES>
905.57
29.99
4.28
2.35
51.88
1.9
-0.32
-37.17
-5.63
7.8
1.17
-3.91
-0.15
-0.51

> <PUBCHEM_SHAPE_SELFOVERLAP>
1945.443

> <PUBCHEM_SHAPE_VOLUME>
490.2

> <PUBCHEM_COORDINATE_TYPE>
2
5
10

$$$$
