10178463
  -OEChem-02242200213D

 50 52  0     1  0  0  0  0  0999 V2000
    1.5756    1.1833    1.1319 O   0  0  0  0  0  0  0  0  0  0  0  0
    4.5912    1.2821   -1.6544 O   0  0  0  0  0  0  0  0  0  0  0  0
    4.7244   -0.5918    0.5425 O   0  0  0  0  0  0  0  0  0  0  0  0
    0.1340    2.3563   -0.2787 O   0  0  0  0  0  0  0  0  0  0  0  0
    1.7946    1.7102   -2.4770 O   0  0  0  0  0  0  0  0  0  0  0  0
    1.6612   -0.2961    3.4470 O   0  0  0  0  0  0  0  0  0  0  0  0
   -4.5262    2.9739   -1.1065 O   0  0  0  0  0  0  0  0  0  0  0  0
    0.5958   -3.5779   -2.6367 O   0  0  0  0  0  0  0  0  0  0  0  0
    3.7984    0.4884    0.4598 C   0  0  1  0  0  0  0  0  0  0  0  0
    3.4412    0.7368   -1.0057 C   0  0  1  0  0  0  0  0  0  0  0  0
    2.5478    0.1461    1.2731 C   0  0  1  0  0  0  0  0  0  0  0  0
    2.2736    1.7156   -1.1324 C   0  0  2  0  0  0  0  0  0  0  0  0
    1.1181    1.3248   -0.2110 C   0  0  1  0  0  0  0  0  0  0  0  0
    2.8611    0.0087    2.7597 C   0  0  0  0  0  0  0  0  0  0  0  0
   -1.1651    1.9772   -0.0786 C   0  0  0  0  0  0  0  0  0  0  0  0
   -1.4493    0.8940    0.7473 C   0  0  0  0  0  0  0  0  0  0  0  0
   -2.1927    2.6777   -0.7027 C   0  0  0  0  0  0  0  0  0  0  0  0
   -2.7740    0.5075    0.9510 C   0  0  0  0  0  0  0  0  0  0  0  0
   -3.5174    2.2912   -0.4989 C   0  0  0  0  0  0  0  0  0  0  0  0
   -3.8080    1.2061    0.3279 C   0  0  0  0  0  0  0  0  0  0  0  0
   -3.0767   -0.6246    1.8124 C   0  0  0  0  0  0  0  0  0  0  0  0
   -2.6423   -1.8921    1.6168 C   0  0  0  0  0  0  0  0  0  0  0  0
   -1.7908   -2.3353    0.4987 C   0  0  0  0  0  0  0  0  0  0  0  0
   -0.5544   -2.8984    0.7692 C   0  0  0  0  0  0  0  0  0  0  0  0
   -2.2436   -2.1798   -0.8013 C   0  0  0  0  0  0  0  0  0  0  0  0
    0.2514   -3.3175   -0.2894 C   0  0  0  0  0  0  0  0  0  0  0  0
   -1.4377   -2.5988   -1.8599 C   0  0  0  0  0  0  0  0  0  0  0  0
   -0.1902   -3.1676   -1.6040 C   0  0  0  0  0  0  0  0  0  0  0  0
    3.2171   -0.2108   -1.5113 H   0  0  0  0  0  0  0  0  0  0  0  0
    4.2891    1.3786    0.8736 H   0  0  0  0  0  0  0  0  0  0  0  0
    2.1045   -0.7988    0.9313 H   0  0  0  0  0  0  0  0  0  0  0  0
    2.6053    2.7380   -0.9122 H   0  0  0  0  0  0  0  0  0  0  0  0
    0.7007    0.3743   -0.5767 H   0  0  0  0  0  0  0  0  0  0  0  0
    3.2555    0.9423    3.1742 H   0  0  0  0  0  0  0  0  0  0  0  0
    3.5801   -0.7933    2.9497 H   0  0  0  0  0  0  0  0  0  0  0  0
    4.3878    1.3561   -2.6020 H   0  0  0  0  0  0  0  0  0  0  0  0
    5.4951   -0.3566   -0.0020 H   0  0  0  0  0  0  0  0  0  0  0  0
    2.5076    2.0462   -3.0457 H   0  0  0  0  0  0  0  0  0  0  0  0
    1.0281    0.4196    3.2659 H   0  0  0  0  0  0  0  0  0  0  0  0
   -0.6723    0.3537    1.2769 H   0  0  0  0  0  0  0  0  0  0  0  0
   -1.9646    3.5229   -1.3468 H   0  0  0  0  0  0  0  0  0  0  0  0
   -4.8420    0.9059    0.4846 H   0  0  0  0  0  0  0  0  0  0  0  0
   -3.7193   -0.4173    2.6643 H   0  0  0  0  0  0  0  0  0  0  0  0
   -2.9129   -2.6599    2.3371 H   0  0  0  0  0  0  0  0  0  0  0  0
   -5.3754    2.5716   -0.8553 H   0  0  0  0  0  0  0  0  0  0  0  0
   -0.1981   -3.0175    1.7889 H   0  0  0  0  0  0  0  0  0  0  0  0
   -3.2182   -1.7522   -1.0214 H   0  0  0  0  0  0  0  0  0  0  0  0
    1.2232   -3.7581   -0.0836 H   0  0  0  0  0  0  0  0  0  0  0  0
   -1.7945   -2.4790   -2.8794 H   0  0  0  0  0  0  0  0  0  0  0  0
    0.1349   -3.3977   -3.4741 H   0  0  0  0  0  0  0  0  0  0  0  0
  1 11  1  0  0  0  0
  1 13  1  0  0  0  0
  2 10  1  0  0  0  0
  2 36  1  0  0  0  0
  3  9  1  0  0  0  0
  3 37  1  0  0  0  0
  4 13  1  0  0  0  0
  4 15  1  0  0  0  0
  5 12  1  0  0  0  0
  5 38  1  0  0  0  0
  6 14  1  0  0  0  0
  6 39  1  0  0  0  0
  7 19  1  0  0  0  0
  7 45  1  0  0  0  0
  8 28  1  0  0  0  0
  8 50  1  0  0  0  0
  9 10  1  0  0  0  0
  9 11  1  0  0  0  0
  9 30  1  0  0  0  0
 10 12  1  0  0  0  0
 10 29  1  0  0  0  0
 11 14  1  0  0  0  0
 11 31  1  0  0  0  0
 12 13  1  0  0  0  0
 12 32  1  0  0  0  0
 13 33  1  0  0  0  0
 14 34  1  0  0  0  0
 14 35  1  0  0  0  0
 15 16  2  0  0  0  0
 15 17  1  0  0  0  0
 16 18  1  0  0  0  0
 16 40  1  0  0  0  0
 17 19  2  0  0  0  0
 17 41  1  0  0  0  0
 18 20  2  0  0  0  0
 18 21  1  0  0  0  0
 19 20  1  0  0  0  0
 20 42  1  0  0  0  0
 21 22  2  0  0  0  0
 21 43  1  0  0  0  0
 22 23  1  0  0  0  0
 22 44  1  0  0  0  0
 23 24  2  0  0  0  0
 23 25  1  0  0  0  0
 24 26  1  0  0  0  0
 24 46  1  0  0  0  0
 25 27  2  0  0  0  0
 25 47  1  0  0  0  0
 26 28  2  0  0  0  0
 26 48  1  0  0  0  0
 27 28  1  0  0  0  0
 27 49  1  0  0  0  0
M  END
> <PUBCHEM_COMPOUND_CID>
10178463

> <PUBCHEM_CONFORMER_RMSD>
0.8

> <PUBCHEM_CONFORMER_DIVERSEORDER>
1
231
143
134
167
40
235
56
26
5
221
254
183
225
63
260
72
115
190
175
146
214
169
114
55
199
71
181
153
237
53
132
116
133
228
193
261
103
256
142
176
248
163
48
171
229
89
186
122
80
222
245
215
258
198
156
154
189
57
192
207
194
66
94
246
182
32
138
236
87
217
150
11
30
98
257
166
107
70
197
232
100
106
195
50
37
226
218
191
219
243
7
34
253
211
200
180
108
128
76
242
230
14
241
79
208
239
130
118
113
93
233
174
161
131
160
33
250
252
244
82
227
88
8
213
117
58
97
140
119
196
201
83
6
43
121
52
187
240
124
210
77
15
203
177
13
188
148
105
21
28
27
123
74
19
251
45
47
238
61
205
110
68
101
2
42
136
86
69
158
4
44
209
159
102
173
139
31
170
137
145
29
125
10
204
62
109
99
212
234
223
38
259
84
162
3
112
78
165
120
60
224
12
155
35
39
185
85
91
41
178
202
75
104
126
67
81
144
151
54
255
65
95
111
141
49
90
96
59
22
172
46
9
179
135
168
216
149
25
164
64
24
92
157
129
23
184
127
16
220
36
152
51
147
18
17
20
206
73
249
247

> <PUBCHEM_MMFF94_PARTIAL_CHARGES>
43
1 -0.56
10 0.28
11 0.28
12 0.28
13 0.56
14 0.28
15 0.08
16 -0.15
17 -0.15
18 0.03
19 0.08
2 -0.68
20 -0.15
21 -0.18
22 -0.18
23 0.03
24 -0.15
25 -0.15
26 -0.15
27 -0.15
28 0.08
3 -0.68
36 0.4
37 0.4
38 0.4
39 0.4
4 -0.36
40 0.15
41 0.15
42 0.15
43 0.15
44 0.15
45 0.45
46 0.15
47 0.15
48 0.15
49 0.15
5 -0.68
50 0.45
6 -0.68
7 -0.53
8 -0.53
9 0.28

> <PUBCHEM_EFFECTIVE_ROTOR_COUNT>
6.2

> <PUBCHEM_PHARMACOPHORE_FEATURES>
15
1 1 acceptor
1 2 acceptor
1 2 donor
1 3 acceptor
1 3 donor
1 4 acceptor
1 5 acceptor
1 5 donor
1 6 acceptor
1 6 donor
1 7 donor
1 8 donor
6 1 9 10 11 12 13 rings
6 15 16 17 18 19 20 rings
6 23 24 25 26 27 28 rings

> <PUBCHEM_HEAVY_ATOM_COUNT>
28

> <PUBCHEM_ATOM_DEF_STEREO_COUNT>
5

> <PUBCHEM_ATOM_UDEF_STEREO_COUNT>
0

> <PUBCHEM_BOND_DEF_STEREO_COUNT>
1

> <PUBCHEM_BOND_UDEF_STEREO_COUNT>
0

> <PUBCHEM_ISOTOPIC_ATOM_COUNT>
0

> <PUBCHEM_COMPONENT_COUNT>
1

> <PUBCHEM_CACTVS_TAUTO_COUNT>
16

> <PUBCHEM_CONFORMER_ID>
009B4F9F00000001

> <PUBCHEM_MMFF94_ENERGY>
90.6804

> <PUBCHEM_FEATURE_SELFOVERLAP>
76.186

> <PUBCHEM_SHAPE_FINGERPRINT>
11524674 6 18057867075375594730
12156800 1 12924788227160470082
12403259 327 15262608552341488099
12422481 6 18269296667527889523
12553582 1 17975981182376087794
12788726 201 18194105546490577517
133893 2 17836096571900282753
13642711 20 12627039146971315958
14114206 34 17755296017601107678
14251751 93 18261121789357224360
16752209 62 18339350976495321059
19026451 147 16182689992933653662
19319366 153 17101447268868387074
20511986 3 17822278098868224072
23419403 2 16897045390137656048
23559900 14 18047188553272954169
23598288 3 18187082901035588907
238 59 18054226519002654695
3027735 51 18059565936667632359
3298306 158 18266177236595470165
35225 105 18129930286502518422
6287921 2 17482812495238099311
90525 40 18334867138091574913
9862522 239 18412831295619492135

> <PUBCHEM_SHAPE_MULTIPOLES>
529.27
7.16
4.42
2.51
3.91
2.66
-0.78
-4.29
-0.38
-3.41
2.79
1.52
1.02
0.08

> <PUBCHEM_SHAPE_SELFOVERLAP>
1135.667

> <PUBCHEM_SHAPE_VOLUME>
290

> <PUBCHEM_COORDINATE_TYPE>
2
5
10

$$$$
