44257792
  -OEChem-02242200393D

 51 54  0     1  0  0  0  0  0999 V2000
   -4.1990   -0.3650    0.6472 O   0  0  0  0  0  0  0  0  0  0  0  0
   -2.2993    0.6875   -0.3029 O   0  0  0  0  0  0  0  0  0  0  0  0
   -4.2797    2.6408   -1.3785 O   0  0  0  0  0  0  0  0  0  0  0  0
   -6.7664    1.0531    0.7286 O   0  0  0  0  0  0  0  0  0  0  0  0
   -4.4959    2.1157    2.2184 O   0  0  0  0  0  0  0  0  0  0  0  0
   -6.8010   -1.3114   -1.6782 O   0  0  0  0  0  0  0  0  0  0  0  0
    2.4319    0.2685   -0.1249 O   0  0  0  0  0  0  0  0  0  0  0  0
   -0.4100   -3.6414    0.2390 O   0  0  0  0  0  0  0  0  0  0  0  0
    2.2091   -3.7737    0.3331 O   0  0  0  0  0  0  0  0  0  0  0  0
    8.3774    2.4057   -0.1892 O   0  0  0  0  0  0  0  0  0  0  0  0
   -4.9283    2.3122   -0.1520 C   0  0  1  0  0  0  0  0  0  0  0  0
   -5.8578    1.1126   -0.3698 C   0  0  1  0  0  0  0  0  0  0  0  0
   -3.8790    2.0408    0.9339 C   0  0  2  0  0  0  0  0  0  0  0  0
   -5.0635   -0.1981   -0.4818 C   0  0  2  0  0  0  0  0  0  0  0  0
   -3.2181    0.6665    0.7849 C   0  0  1  0  0  0  0  0  0  0  0  0
   -5.9599   -1.4303   -0.5471 C   0  0  0  0  0  0  0  0  0  0  0  0
   -1.1926   -0.1064   -0.1827 C   0  0  0  0  0  0  0  0  0  0  0  0
    0.0804    0.4638   -0.2118 C   0  0  0  0  0  0  0  0  0  0  0  0
   -1.3388   -1.4860   -0.0310 C   0  0  0  0  0  0  0  0  0  0  0  0
    1.2075   -0.3491   -0.0890 C   0  0  0  0  0  0  0  0  0  0  0  0
    1.0595   -1.7267    0.0629 C   0  0  0  0  0  0  0  0  0  0  0  0
   -0.2132   -2.3015    0.0927 C   0  0  0  0  0  0  0  0  0  0  0  0
    2.2648   -2.5599    0.1923 C   0  0  0  0  0  0  0  0  0  0  0  0
    3.5704   -0.5151   -0.0138 C   0  0  0  0  0  0  0  0  0  0  0  0
    3.5580   -1.8483    0.1437 C   0  0  0  0  0  0  0  0  0  0  0  0
    4.8325    0.2503   -0.0605 C   0  0  0  0  0  0  0  0  0  0  0  0
    5.7054    0.2229    1.0272 C   0  0  0  0  0  0  0  0  0  0  0  0
    5.1512    1.0015   -1.1918 C   0  0  0  0  0  0  0  0  0  0  0  0
    6.8967    0.9470    0.9838 C   0  0  0  0  0  0  0  0  0  0  0  0
    6.3425    1.7257   -1.2352 C   0  0  0  0  0  0  0  0  0  0  0  0
    7.2153    1.6984   -0.1475 C   0  0  0  0  0  0  0  0  0  0  0  0
   -5.5209    3.1859    0.1466 H   0  0  0  0  0  0  0  0  0  0  0  0
   -6.4510    1.2557   -1.2806 H   0  0  0  0  0  0  0  0  0  0  0  0
   -3.1096    2.8214    0.8885 H   0  0  0  0  0  0  0  0  0  0  0  0
   -4.4560   -0.1676   -1.3958 H   0  0  0  0  0  0  0  0  0  0  0  0
   -2.6781    0.4486    1.7166 H   0  0  0  0  0  0  0  0  0  0  0  0
   -6.5700   -1.5371    0.3562 H   0  0  0  0  0  0  0  0  0  0  0  0
   -5.3536   -2.3378   -0.6427 H   0  0  0  0  0  0  0  0  0  0  0  0
   -4.9710    2.8467   -2.0307 H   0  0  0  0  0  0  0  0  0  0  0  0
   -7.2872    1.8743    0.7250 H   0  0  0  0  0  0  0  0  0  0  0  0
   -3.7974    2.0137    2.8872 H   0  0  0  0  0  0  0  0  0  0  0  0
   -7.3575   -2.1082   -1.7067 H   0  0  0  0  0  0  0  0  0  0  0  0
    0.1909    1.5389   -0.3298 H   0  0  0  0  0  0  0  0  0  0  0  0
   -2.3240   -1.9436   -0.0246 H   0  0  0  0  0  0  0  0  0  0  0  0
    4.4625   -2.4398    0.2326 H   0  0  0  0  0  0  0  0  0  0  0  0
    0.4388   -4.1039    0.3116 H   0  0  0  0  0  0  0  0  0  0  0  0
    5.4723   -0.3525    1.9199 H   0  0  0  0  0  0  0  0  0  0  0  0
    4.4824    1.0318   -2.0487 H   0  0  0  0  0  0  0  0  0  0  0  0
    7.5720    0.9231    1.8347 H   0  0  0  0  0  0  0  0  0  0  0  0
    6.5793    2.3069   -2.1224 H   0  0  0  0  0  0  0  0  0  0  0  0
    8.4355    2.8660   -1.0441 H   0  0  0  0  0  0  0  0  0  0  0  0
  1 14  1  0  0  0  0
  1 15  1  0  0  0  0
  2 15  1  0  0  0  0
  2 17  1  0  0  0  0
  3 11  1  0  0  0  0
  3 39  1  0  0  0  0
  4 12  1  0  0  0  0
  4 40  1  0  0  0  0
  5 13  1  0  0  0  0
  5 41  1  0  0  0  0
  6 16  1  0  0  0  0
  6 42  1  0  0  0  0
  7 20  1  0  0  0  0
  7 24  1  0  0  0  0
  8 22  1  0  0  0  0
  8 46  1  0  0  0  0
  9 23  2  0  0  0  0
 10 31  1  0  0  0  0
 10 51  1  0  0  0  0
 11 12  1  0  0  0  0
 11 13  1  0  0  0  0
 11 32  1  0  0  0  0
 12 14  1  0  0  0  0
 12 33  1  0  0  0  0
 13 15  1  0  0  0  0
 13 34  1  0  0  0  0
 14 16  1  0  0  0  0
 14 35  1  0  0  0  0
 15 36  1  0  0  0  0
 16 37  1  0  0  0  0
 16 38  1  0  0  0  0
 17 18  1  0  0  0  0
 17 19  2  0  0  0  0
 18 20  2  0  0  0  0
 18 43  1  0  0  0  0
 19 22  1  0  0  0  0
 19 44  1  0  0  0  0
 20 21  1  0  0  0  0
 21 22  2  0  0  0  0
 21 23  1  0  0  0  0
 23 25  1  0  0  0  0
 24 25  2  0  0  0  0
 24 26  1  0  0  0  0
 25 45  1  0  0  0  0
 26 27  2  0  0  0  0
 26 28  1  0  0  0  0
 27 29  1  0  0  0  0
 27 47  1  0  0  0  0
 28 30  2  0  0  0  0
 28 48  1  0  0  0  0
 29 31  2  0  0  0  0
 29 49  1  0  0  0  0
 30 31  1  0  0  0  0
 30 50  1  0  0  0  0
M  END
> <PUBCHEM_COMPOUND_CID>
44257792

> <PUBCHEM_CONFORMER_RMSD>
0.8

> <PUBCHEM_CONFORMER_DIVERSEORDER>
4
116
151
109
132
60
143
81
90
129
44
92
96
131
61
32
95
152
33
49
172
177
176
39
94
156
137
133
26
1
141
41
117
161
38
100
147
75
170
118
27
8
107
63
9
3
17
14
134
160
124
175
22
121
127
13
15
21
55
76
20
29
84
56
102
83
71
140
174
150
35
136
42
7
168
158
25
128
101
171
99
11
5
173
178
159
167
82
97
169
2
54
46
113
85
69
58
16
62
155
164
78
163
67
88
19
105
30
98
122
34
89
153
10
6
123
40
144
52
145
48
28
111
154
23
51
72
66
179
103
126
93
139
74
65
119
50
53
110
165
59
142
64
57
157
148
37
135
80
138
79
146
47
114
31
115
91
24
86
12
43
73
130
68
87
108
70
104
149
18
112
166
106
162
77
45
36
120
125

> <PUBCHEM_MMFF94_PARTIAL_CHARGES>
44
1 -0.56
10 -0.53
11 0.28
12 0.28
13 0.28
14 0.28
15 0.56
16 0.28
17 0.08
18 -0.15
19 -0.15
2 -0.36
20 0.08
21 0.09
22 0.08
23 0.47
24 0.05
25 -0.14
26 0.03
27 -0.15
28 -0.15
29 -0.15
3 -0.68
30 -0.15
31 0.08
39 0.4
4 -0.68
40 0.4
41 0.4
42 0.4
43 0.15
44 0.15
45 0.15
46 0.45
47 0.15
48 0.15
49 0.15
5 -0.68
50 0.15
51 0.45
6 -0.68
7 -0.16
8 -0.53
9 -0.57

> <PUBCHEM_EFFECTIVE_ROTOR_COUNT>
5.2

> <PUBCHEM_PHARMACOPHORE_FEATURES>
18
1 1 acceptor
1 10 donor
1 2 acceptor
1 3 acceptor
1 3 donor
1 4 acceptor
1 4 donor
1 5 acceptor
1 5 donor
1 6 acceptor
1 6 donor
1 7 acceptor
1 8 donor
1 9 acceptor
6 1 11 12 13 14 15 rings
6 17 18 19 20 21 22 rings
6 26 27 28 29 30 31 rings
6 7 20 21 23 24 25 rings

> <PUBCHEM_HEAVY_ATOM_COUNT>
31

> <PUBCHEM_ATOM_DEF_STEREO_COUNT>
3

> <PUBCHEM_ATOM_UDEF_STEREO_COUNT>
2

> <PUBCHEM_BOND_DEF_STEREO_COUNT>
0

> <PUBCHEM_BOND_UDEF_STEREO_COUNT>
0

> <PUBCHEM_ISOTOPIC_ATOM_COUNT>
0

> <PUBCHEM_COMPONENT_COUNT>
1

> <PUBCHEM_CACTVS_TAUTO_COUNT>
24

> <PUBCHEM_CONFORMER_ID>
02A3520000000004

> <PUBCHEM_MMFF94_ENERGY>
103.5474

> <PUBCHEM_FEATURE_SELFOVERLAP>
91.43

> <PUBCHEM_SHAPE_FINGERPRINT>
10 15 17967256399033810744
10595046 47 18341328908051725187
10669705 176 18342742927455355694
10835480 77 18189330187382634189
11007060 377 18408611374160578435
11135609 187 18408600353622331209
11136131 41 18115580444933773954
12107183 9 18261381240802386650
12236239 1 18201716224233696167
12390115 104 18342189872842917994
12422481 6 17385443198588445220
12592606 108 9295286136621244633
12925494 130 17981598575363741440
13248334 5 18193275179337636826
13540713 5 18337653283841649122
13631057 29 18271239521864684575
14118638 360 18343862204259039487
14294032 229 18334286579067769636
14347332 77 10375602481914909962
14420673 8 9871748005605511749
14767858 380 18342449378940616535
14790565 3 18408890637614051764
15348495 7 14129352826772767020
1577012 14 18412262822126839181
16126227 98 18338801221045546840
16992752 21 17988356079591343255
18608769 82 18339364196668883171
20554085 129 18059845183041392098
21033648 29 17313949594038894141
21365058 113 14261342583643349699
23559900 14 18341599422762702081
23569917 315 18408888429996652266
24771293 8 18408604777375849836
2748736 6 18409165519937321208
335352 9 18409171009638859398
3411729 13 18334012753459708026
3472631 163 18339648944900848796
350125 39 18411136961349559825
3918712 181 18413101771486340096
397830 11 14129633223907638068
3986486 107 17916886681493888292
4073 2 18333736797573988691
4258327 124 18042698367382415332
44249763 50 17488166266593784010
5080951 261 16515692174068575243
5104073 3 18262243196839351371
550186 72 18409728439747493597
5758199 1 18412830187348923497
59682541 52 16988291876674712030
6058803 2 17984133757019025843
636775 72 18269835492819236072
6371009 1 18334296504215405764
9961470 85 17980474882421463032
999808 66 12535342450565171325

> <PUBCHEM_SHAPE_MULTIPOLES>
579.27
20.86
3.31
1.12
9.85
1.98
-0.1
-15.35
1.75
0.17
-0.13
-0.69
-0.55
-1.7

> <PUBCHEM_SHAPE_SELFOVERLAP>
1271.227

> <PUBCHEM_SHAPE_VOLUME>
309

> <PUBCHEM_COORDINATE_TYPE>
2
5
10

$$$$
