9979523
  -OEChem-02242200303D

 55 58  0     1  0  0  0  0  0999 V2000
    3.7737    0.9590    0.7702 O   0  0  0  0  0  0  0  0  0  0  0  0
    0.6167   -1.7374   -0.0472 O   0  0  0  0  0  0  0  0  0  0  0  0
   -0.3230    2.1140    0.9027 O   0  0  0  0  0  0  0  0  0  0  0  0
   -2.8512    1.4991    0.8869 O   0  0  0  0  0  0  0  0  0  0  0  0
   -3.9276   -3.0588   -0.0881 O   0  0  0  0  0  0  0  0  0  0  0  0
    6.9712   -2.3328   -0.3892 O   0  0  0  0  0  0  0  0  0  0  0  0
    1.3538    0.5239    0.4040 C   0  0  0  0  0  0  0  0  0  0  0  0
    2.4657    1.5260    0.5611 C   0  0  2  0  0  0  0  0  0  0  0  0
    1.5818   -0.7643    0.1114 C   0  0  0  0  0  0  0  0  0  0  0  0
    2.9741   -1.1895   -0.0568 C   0  0  0  0  0  0  0  0  0  0  0  0
   -1.0873   -0.0763    0.4269 C   0  0  0  0  0  0  0  0  0  0  0  0
   -0.0537    0.9581    0.6035 C   0  0  0  0  0  0  0  0  0  0  0  0
    4.0016   -0.3023    0.2872 C   0  0  0  0  0  0  0  0  0  0  0  0
   -0.6962   -1.3754    0.1086 C   0  0  0  0  0  0  0  0  0  0  0  0
    2.5557    2.4638   -0.6068 C   0  0  0  0  0  0  0  0  0  0  0  0
   -2.4413    0.2347    0.5760 C   0  0  0  0  0  0  0  0  0  0  0  0
   -3.4006   -0.7640    0.4034 C   0  0  0  0  0  0  0  0  0  0  0  0
    3.3164   -2.4666   -0.5251 C   0  0  0  0  0  0  0  0  0  0  0  0
   -1.6569   -2.3724   -0.0633 C   0  0  0  0  0  0  0  0  0  0  0  0
    5.3413   -0.6881    0.1848 C   0  0  0  0  0  0  0  0  0  0  0  0
   -3.0094   -2.0650    0.0843 C   0  0  0  0  0  0  0  0  0  0  0  0
    2.4261    3.8044   -0.5989 C   0  0  0  0  0  0  0  0  0  0  0  0
    4.6557   -2.8465   -0.6403 C   0  0  0  0  0  0  0  0  0  0  0  0
    5.6673   -1.9589   -0.2831 C   0  0  0  0  0  0  0  0  0  0  0  0
   -4.8195   -0.4537    0.5550 C   0  0  0  0  0  0  0  0  0  0  0  0
   -7.1132    0.2374   -0.2335 C   0  0  0  0  0  0  0  0  0  0  0  0
   -5.6485   -0.0649   -0.4362 C   0  0  0  0  0  0  0  0  0  0  0  0
    2.5446    4.6048   -1.8660 C   0  0  0  0  0  0  0  0  0  0  0  0
    2.1583    4.6107    0.6403 C   0  0  0  0  0  0  0  0  0  0  0  0
   -7.4066    1.6921   -0.5989 C   0  0  0  0  0  0  0  0  0  0  0  0
   -7.9690   -0.7111   -1.0724 C   0  0  0  0  0  0  0  0  0  0  0  0
    2.2687    2.0577    1.4945 H   0  0  0  0  0  0  0  0  0  0  0  0
    2.7586    1.9838   -1.5645 H   0  0  0  0  0  0  0  0  0  0  0  0
    2.5508   -3.1862   -0.8053 H   0  0  0  0  0  0  0  0  0  0  0  0
   -1.3448   -3.3840   -0.3110 H   0  0  0  0  0  0  0  0  0  0  0  0
    6.1310    0.0044    0.4660 H   0  0  0  0  0  0  0  0  0  0  0  0
    4.8945   -3.8417   -1.0061 H   0  0  0  0  0  0  0  0  0  0  0  0
   -5.2033   -0.5591    1.5670 H   0  0  0  0  0  0  0  0  0  0  0  0
   -7.3810    0.0923    0.8209 H   0  0  0  0  0  0  0  0  0  0  0  0
   -5.2556    0.0379   -1.4460 H   0  0  0  0  0  0  0  0  0  0  0  0
    1.6192    5.1600   -2.0512 H   0  0  0  0  0  0  0  0  0  0  0  0
    3.3698    5.3200   -1.7873 H   0  0  0  0  0  0  0  0  0  0  0  0
    2.7339    3.9738   -2.7408 H   0  0  0  0  0  0  0  0  0  0  0  0
    2.9351    5.3742    0.7596 H   0  0  0  0  0  0  0  0  0  0  0  0
    1.1935    5.1210    0.5484 H   0  0  0  0  0  0  0  0  0  0  0  0
    2.1352    4.0388    1.5677 H   0  0  0  0  0  0  0  0  0  0  0  0
   -2.0956    2.1015    0.9563 H   0  0  0  0  0  0  0  0  0  0  0  0
   -6.8107    2.3780    0.0135 H   0  0  0  0  0  0  0  0  0  0  0  0
   -8.4631    1.9276   -0.4309 H   0  0  0  0  0  0  0  0  0  0  0  0
   -7.1798    1.8972   -1.6514 H   0  0  0  0  0  0  0  0  0  0  0  0
   -7.7775   -1.7553   -0.8009 H   0  0  0  0  0  0  0  0  0  0  0  0
   -9.0346   -0.5149   -0.9119 H   0  0  0  0  0  0  0  0  0  0  0  0
   -7.7640   -0.5988   -2.1432 H   0  0  0  0  0  0  0  0  0  0  0  0
   -3.4657   -3.8870   -0.3041 H   0  0  0  0  0  0  0  0  0  0  0  0
    7.0115   -3.2434   -0.7290 H   0  0  0  0  0  0  0  0  0  0  0  0
  1  8  1  0  0  0  0
  1 13  1  0  0  0  0
  2  9  1  0  0  0  0
  2 14  1  0  0  0  0
  3 12  2  0  0  0  0
  4 16  1  0  0  0  0
  4 47  1  0  0  0  0
  5 21  1  0  0  0  0
  5 54  1  0  0  0  0
  6 24  1  0  0  0  0
  6 55  1  0  0  0  0
  7  8  1  0  0  0  0
  7  9  2  0  0  0  0
  7 12  1  0  0  0  0
  8 15  1  0  0  0  0
  8 32  1  0  0  0  0
  9 10  1  0  0  0  0
 10 13  2  0  0  0  0
 10 18  1  0  0  0  0
 11 12  1  0  0  0  0
 11 14  2  0  0  0  0
 11 16  1  0  0  0  0
 13 20  1  0  0  0  0
 14 19  1  0  0  0  0
 15 22  2  0  0  0  0
 15 33  1  0  0  0  0
 16 17  2  0  0  0  0
 17 21  1  0  0  0  0
 17 25  1  0  0  0  0
 18 23  2  0  0  0  0
 18 34  1  0  0  0  0
 19 21  2  0  0  0  0
 19 35  1  0  0  0  0
 20 24  2  0  0  0  0
 20 36  1  0  0  0  0
 22 28  1  0  0  0  0
 22 29  1  0  0  0  0
 23 24  1  0  0  0  0
 23 37  1  0  0  0  0
 25 27  2  0  0  0  0
 25 38  1  0  0  0  0
 26 27  1  0  0  0  0
 26 30  1  0  0  0  0
 26 31  1  0  0  0  0
 26 39  1  0  0  0  0
 27 40  1  0  0  0  0
 28 41  1  0  0  0  0
 28 42  1  0  0  0  0
 28 43  1  0  0  0  0
 29 44  1  0  0  0  0
 29 45  1  0  0  0  0
 29 46  1  0  0  0  0
 30 48  1  0  0  0  0
 30 49  1  0  0  0  0
 30 50  1  0  0  0  0
 31 51  1  0  0  0  0
 31 52  1  0  0  0  0
 31 53  1  0  0  0  0
M  END
> <PUBCHEM_COMPOUND_CID>
9979523

> <PUBCHEM_CONFORMER_RMSD>
0.8

> <PUBCHEM_CONFORMER_DIVERSEORDER>
1
6
9
8
3
7
5
2
4

> <PUBCHEM_MMFF94_PARTIAL_CHARGES>
39
1 -0.36
10 0.03
11 0.09
12 0.47
13 0.08
14 0.08
15 -0.29
16 0.08
17 0.03
18 -0.15
19 -0.15
2 -0.16
20 -0.15
21 0.08
22 -0.28
23 -0.15
24 0.08
25 -0.18
26 0.14
27 -0.29
28 0.14
29 0.14
3 -0.57
33 0.15
34 0.15
35 0.15
36 0.15
37 0.15
38 0.15
4 -0.53
40 0.15
47 0.45
5 -0.53
54 0.45
55 0.45
6 -0.53
7 -0.12
8 0.56
9 0.05

> <PUBCHEM_EFFECTIVE_ROTOR_COUNT>
3.4

> <PUBCHEM_PHARMACOPHORE_FEATURES>
12
1 1 acceptor
1 2 acceptor
1 3 acceptor
1 4 donor
1 5 donor
1 6 donor
3 22 28 29 hydrophobe
3 26 30 31 hydrophobe
6 1 7 8 9 10 13 rings
6 10 13 18 20 23 24 rings
6 11 14 16 17 19 21 rings
6 2 7 9 11 12 14 rings

> <PUBCHEM_HEAVY_ATOM_COUNT>
31

> <PUBCHEM_ATOM_DEF_STEREO_COUNT>
0

> <PUBCHEM_ATOM_UDEF_STEREO_COUNT>
1

> <PUBCHEM_BOND_DEF_STEREO_COUNT>
1

> <PUBCHEM_BOND_UDEF_STEREO_COUNT>
0

> <PUBCHEM_ISOTOPIC_ATOM_COUNT>
0

> <PUBCHEM_COMPONENT_COUNT>
1

> <PUBCHEM_CACTVS_TAUTO_COUNT>
98

> <PUBCHEM_CONFORMER_ID>
0098468300000001

> <PUBCHEM_MMFF94_ENERGY>
86.7152

> <PUBCHEM_FEATURE_SELFOVERLAP>
60.977

> <PUBCHEM_SHAPE_FINGERPRINT>
10050765 1 18265614471594979491
10411042 1 18268148661218411426
10554248 39 18337943615060893431
10763959 59 18334575729061464277
11135609 187 18119820359687217508
11386260 185 18261663853291459197
12166972 35 18272368650827252929
12236239 1 17632574938485660603
13540713 4 17824556381365302555
138480 1 18411986901318627232
13878862 14 18190441918049728437
14068700 675 18272369720311097736
14117953 113 18342741771449939199
14415361 349 17703793617804961678
15183329 4 18339076000395070515
15400415 2 17475796928069874985
15419008 47 17894909586198471453
15439362 3 18190465063813329852
15840311 113 18260266387456269389
16087824 20 18267024942886196097
17492 89 18267026243987227250
18335252 114 18337381674382906701
18393751 57 10591459682669732358
18681886 176 18342168943182480691
20028762 73 17988923319231195247
20238998 120 18412262797180513952
20642791 13 17915749665018874682
20715895 44 18410006637869235849
21133410 127 17897718992953506845
21267235 1 18342464715894628211
21304303 172 18128262194720797848
21859007 373 18042103407006393765
22311459 1 18410575042315416387
23366157 5 18188773997733376178
23559900 14 18341327889590478090
23576562 1 18335710497674710839
24771750 20 18192446365884586798
249057 25 17918001581529965241
249057 3 18411699880980098095
2838139 119 18335415773736500837
3004659 81 18410289207593095867
3103668 31 17972597689009162876
3178227 256 18337687329972947955
335352 9 18412545401021402167
350125 39 18410295821610388961
3633792 109 18342736270345535587
397830 11 17750528458722700131
4073 2 18188211004287833835
4144715 1 18041850648475916715
4409770 3 17756984507311963388
46194498 28 18186516635267656245
58902169 19 18130495393384110919
59755656 215 18338235964362767991
633830 44 17968649557691561563
9709674 26 18265338476611514514
9981440 41 17617660294967004864

> <PUBCHEM_SHAPE_MULTIPOLES>
602.75
16.62
4.74
0.97
25.13
5.73
0.19
-5.97
4.43
-6.77
1.4
-0.04
0.67
0.09

> <PUBCHEM_SHAPE_SELFOVERLAP>
1324.928

> <PUBCHEM_SHAPE_VOLUME>
325

> <PUBCHEM_COORDINATE_TYPE>
2
5
10

$$$$
