35698
  -OEChem-01092204552D

 25 24  0     0  0  0  0  0  0999 V2000
    2.5369    0.3450    0.0000 O   0  0  0  0  0  0  0  0  0  0  0  0
    3.4030   -1.1550    0.0000 O   0  0  0  0  0  0  0  0  0  0  0  0
    6.0010    0.3450    0.0000 C   0  0  0  0  0  0  0  0  0  0  0  0
    6.8671   -0.1550    0.0000 C   0  0  0  0  0  0  0  0  0  0  0  0
    5.1350   -0.1550    0.0000 C   0  0  0  0  0  0  0  0  0  0  0  0
    7.7331    0.3450    0.0000 C   0  0  0  0  0  0  0  0  0  0  0  0
    4.2690    0.3450    0.0000 C   0  0  0  0  0  0  0  0  0  0  0  0
    8.5991   -0.1550    0.0000 C   0  0  0  0  0  0  0  0  0  0  0  0
    3.4030   -0.1550    0.0000 C   0  0  0  0  0  0  0  0  0  0  0  0
    9.4651    0.3450    0.0000 C   0  0  0  0  0  0  0  0  0  0  0  0
   10.3312    0.8450    0.0000 C   0  0  0  0  0  0  0  0  0  0  0  0
    6.3996    0.8199    0.0000 H   0  0  0  0  0  0  0  0  0  0  0  0
    5.6025    0.8199    0.0000 H   0  0  0  0  0  0  0  0  0  0  0  0
    6.4685   -0.6299    0.0000 H   0  0  0  0  0  0  0  0  0  0  0  0
    7.2656   -0.6299    0.0000 H   0  0  0  0  0  0  0  0  0  0  0  0
    4.7365   -0.6299    0.0000 H   0  0  0  0  0  0  0  0  0  0  0  0
    5.5335   -0.6299    0.0000 H   0  0  0  0  0  0  0  0  0  0  0  0
    8.1316    0.8199    0.0000 H   0  0  0  0  0  0  0  0  0  0  0  0
    7.3346    0.8199    0.0000 H   0  0  0  0  0  0  0  0  0  0  0  0
    4.6675    0.8199    0.0000 H   0  0  0  0  0  0  0  0  0  0  0  0
    3.8705    0.8199    0.0000 H   0  0  0  0  0  0  0  0  0  0  0  0
    8.2006   -0.6299    0.0000 H   0  0  0  0  0  0  0  0  0  0  0  0
    8.9976   -0.6299    0.0000 H   0  0  0  0  0  0  0  0  0  0  0  0
    2.0000    0.0350    0.0000 H   0  0  0  0  0  0  0  0  0  0  0  0
   10.8681    1.1550    0.0000 H   0  0  0  0  0  0  0  0  0  0  0  0
  1  9  1  0  0  0  0
  1 24  1  0  0  0  0
  2  9  2  0  0  0  0
  3  4  1  0  0  0  0
  3  5  1  0  0  0  0
  3 12  1  0  0  0  0
  3 13  1  0  0  0  0
  4  6  1  0  0  0  0
  4 14  1  0  0  0  0
  4 15  1  0  0  0  0
  5  7  1  0  0  0  0
  5 16  1  0  0  0  0
  5 17  1  0  0  0  0
  6  8  1  0  0  0  0
  6 18  1  0  0  0  0
  6 19  1  0  0  0  0
  7  9  1  0  0  0  0
  7 20  1  0  0  0  0
  7 21  1  0  0  0  0
  8 10  1  0  0  0  0
  8 22  1  0  0  0  0
  8 23  1  0  0  0  0
 10 11  3  0  0  0  0
 11 25  1  0  0  0  0
M  END
> <PUBCHEM_COMPOUND_CID>
35698

> <PUBCHEM_COMPOUND_CANONICALIZED>
1

> <PUBCHEM_CACTVS_COMPLEXITY>
152

> <PUBCHEM_CACTVS_HBOND_ACCEPTOR>
2

> <PUBCHEM_CACTVS_HBOND_DONOR>
1

> <PUBCHEM_CACTVS_ROTATABLE_BOND>
6

> <PUBCHEM_CACTVS_SUBSKEYS>
AAADccBwMAAAAAAAAAAAAAAAAAAAAAAAAAAAAAAAAAAAAAAAAAAAGgAACAAACACAgAAACAAAAgBIGACQCAgAAAAAAAAAAAEAAAAAABIAAAAAQAAEAAAAAAGIyKCAAAAAAAAAAAAAAAAAAAAAAAAAAAAAAA==

> <PUBCHEM_IUPAC_OPENEYE_NAME>
non-8-ynoic acid

> <PUBCHEM_IUPAC_CAS_NAME>
8-nonynoic acid

> <PUBCHEM_IUPAC_NAME_MARKUP>
non-8-ynoic acid

> <PUBCHEM_IUPAC_NAME>
non-8-ynoic acid

> <PUBCHEM_IUPAC_SYSTEMATIC_NAME>
non-8-ynoic acid

> <PUBCHEM_IUPAC_TRADITIONAL_NAME>
non-8-ynoic acid

> <PUBCHEM_IUPAC_INCHI>
InChI=1S/C9H14O2/c1-2-3-4-5-6-7-8-9(10)11/h1H,3-8H2,(H,10,11)

> <PUBCHEM_IUPAC_INCHIKEY>
NLRIJHGYFNZMGB-UHFFFAOYSA-N

> <PUBCHEM_XLOGP3>
2.2

> <PUBCHEM_EXACT_MASS>
154.099379685

> <PUBCHEM_MOLECULAR_FORMULA>
C9H14O2

> <PUBCHEM_MOLECULAR_WEIGHT>
154.21

> <PUBCHEM_OPENEYE_CAN_SMILES>
C#CCCCCCCC(=O)O

> <PUBCHEM_OPENEYE_ISO_SMILES>
C#CCCCCCCC(=O)O

> <PUBCHEM_CACTVS_TPSA>
37.3

> <PUBCHEM_MONOISOTOPIC_WEIGHT>
154.099379685

> <PUBCHEM_TOTAL_CHARGE>
0

> <PUBCHEM_HEAVY_ATOM_COUNT>
11

> <PUBCHEM_ATOM_DEF_STEREO_COUNT>
0

> <PUBCHEM_ATOM_UDEF_STEREO_COUNT>
0

> <PUBCHEM_BOND_DEF_STEREO_COUNT>
0

> <PUBCHEM_BOND_UDEF_STEREO_COUNT>
0

> <PUBCHEM_ISOTOPIC_ATOM_COUNT>
0

> <PUBCHEM_COMPONENT_COUNT>
1

> <PUBCHEM_CACTVS_TAUTO_COUNT>
2

> <PUBCHEM_COORDINATE_TYPE>
1
5
255

$$$$
