14520973
  -OEChem-01092205042D

 69 74  0     1  0  0  0  0  0999 V2000
   11.1291   -1.1024    0.0000 O   0  0  0  0  0  0  0  0  0  0  0  0
   10.0720   -3.4712    0.0000 O   0  0  0  0  0  0  0  0  0  0  0  0
   11.7186   -2.1138    0.0000 O   0  0  0  0  0  0  0  0  0  0  0  0
    8.7407   -1.8034    0.0000 O   0  0  0  0  0  0  0  0  0  0  0  0
    7.7661   -0.9699    0.0000 O   0  0  0  0  0  0  0  0  0  0  0  0
   12.6505   -2.7976    0.0000 O   0  0  0  0  0  0  0  0  0  0  0  0
    8.3589   -3.0217    0.0000 O   0  0  0  0  0  0  0  0  0  0  0  0
    5.9960    1.0889    0.0000 O   0  0  0  0  0  0  0  0  0  0  0  0
    9.5261    2.0647    0.0000 O   0  0  0  0  0  0  0  0  0  0  0  0
   12.8579   -4.7868    0.0000 O   0  0  0  0  0  0  0  0  0  0  0  0
    6.8678    2.5855    0.0000 O   0  0  0  0  0  0  0  0  0  0  0  0
    5.1396   -3.4628    0.0000 O   0  0  0  0  0  0  0  0  0  0  0  0
    3.3960   -0.4695    0.0000 O   0  0  0  0  0  0  0  0  0  0  0  0
    3.4037   -2.4694    0.0000 O   0  0  0  0  0  0  0  0  0  0  0  0
    2.5357    2.1022    0.0000 O   0  0  0  0  0  0  0  0  0  0  0  0
    4.2793    5.0955    0.0000 O   0  0  0  0  0  0  0  0  0  0  0  0
    2.5434    4.1022    0.0000 O   0  0  0  0  0  0  0  0  0  0  0  0
   10.7240   -2.0102    0.0000 C   0  0  3  0  0  0  0  0  0  0  0  0
    9.7353   -1.9071    0.0000 C   0  0  3  0  0  0  0  0  0  0  0  0
   10.9278   -2.9771    0.0000 C   0  0  3  0  0  0  0  0  0  0  0  0
    9.5261   -0.9353    0.0000 C   0  0  0  0  0  0  0  0  0  0  0  0
   10.3921   -0.4353    0.0000 C   0  0  0  0  0  0  0  0  0  0  0  0
    9.3365   -2.8112    0.0000 C   0  0  0  0  0  0  0  0  0  0  0  0
   11.8410   -3.3846    0.0000 C   0  0  3  0  0  0  0  0  0  0  0  0
    8.6601   -0.4353    0.0000 C   0  0  0  0  0  0  0  0  0  0  0  0
    8.6601    0.5647    0.0000 C   0  0  0  0  0  0  0  0  0  0  0  0
    7.7661    1.0994    0.0000 C   0  0  0  0  0  0  0  0  0  0  0  0
    6.8600    0.5855    0.0000 C   0  0  3  0  0  0  0  0  0  0  0  0
    6.8600   -0.4561    0.0000 C   0  0  3  0  0  0  0  0  0  0  0  0
   10.3921    0.5647    0.0000 C   0  0  0  0  0  0  0  0  0  0  0  0
    9.5261    1.0647    0.0000 C   0  0  0  0  0  0  0  0  0  0  0  0
   11.9447   -4.3792    0.0000 C   0  0  0  0  0  0  0  0  0  0  0  0
    5.9960   -0.9594    0.0000 C   0  0  0  0  0  0  0  0  0  0  0  0
    5.1280   -0.4628    0.0000 C   0  0  0  0  0  0  0  0  0  0  0  0
    5.9998   -1.9594    0.0000 C   0  0  0  0  0  0  0  0  0  0  0  0
    5.9998    2.0888    0.0000 C   0  0  0  0  0  0  0  0  0  0  0  0
    5.1357   -2.4628    0.0000 C   0  0  0  0  0  0  0  0  0  0  0  0
    4.2639   -0.9661    0.0000 C   0  0  0  0  0  0  0  0  0  0  0  0
    4.2678   -1.9661    0.0000 C   0  0  0  0  0  0  0  0  0  0  0  0
    5.1357    2.5922    0.0000 C   0  0  0  0  0  0  0  0  0  0  0  0
    5.1396    3.5922    0.0000 C   0  0  0  0  0  0  0  0  0  0  0  0
    4.2678    2.0955    0.0000 C   0  0  0  0  0  0  0  0  0  0  0  0
    3.4037    2.5989    0.0000 C   0  0  0  0  0  0  0  0  0  0  0  0
    4.2755    4.0955    0.0000 C   0  0  0  0  0  0  0  0  0  0  0  0
    3.4075    3.5989    0.0000 C   0  0  0  0  0  0  0  0  0  0  0  0
   10.9600   -3.5963    0.0000 H   0  0  0  0  0  0  0  0  0  0  0  0
   11.7767   -2.7680    0.0000 H   0  0  0  0  0  0  0  0  0  0  0  0
    8.1707    1.5692    0.0000 H   0  0  0  0  0  0  0  0  0  0  0  0
    7.3725    1.5784    0.0000 H   0  0  0  0  0  0  0  0  0  0  0  0
    6.3225    0.2766    0.0000 H   0  0  0  0  0  0  0  0  0  0  0  0
    6.3225   -0.1471    0.0000 H   0  0  0  0  0  0  0  0  0  0  0  0
   12.0826   -1.6119    0.0000 H   0  0  0  0  0  0  0  0  0  0  0  0
   10.9290    0.8747    0.0000 H   0  0  0  0  0  0  0  0  0  0  0  0
    8.3767   -2.3053    0.0000 H   0  0  0  0  0  0  0  0  0  0  0  0
   11.3262   -4.3355    0.0000 H   0  0  0  0  0  0  0  0  0  0  0  0
   11.7941   -4.9807    0.0000 H   0  0  0  0  0  0  0  0  0  0  0  0
   13.2167   -3.0502    0.0000 H   0  0  0  0  0  0  0  0  0  0  0  0
   10.0630    2.3747    0.0000 H   0  0  0  0  0  0  0  0  0  0  0  0
   12.9221   -5.4034    0.0000 H   0  0  0  0  0  0  0  0  0  0  0  0
    5.1256    0.1572    0.0000 H   0  0  0  0  0  0  0  0  0  0  0  0
    6.5379   -2.2674    0.0000 H   0  0  0  0  0  0  0  0  0  0  0  0
    5.6777   -3.7707    0.0000 H   0  0  0  0  0  0  0  0  0  0  0  0
    2.8602   -0.7815    0.0000 H   0  0  0  0  0  0  0  0  0  0  0  0
    5.6777    3.9001    0.0000 H   0  0  0  0  0  0  0  0  0  0  0  0
    4.2654    1.4755    0.0000 H   0  0  0  0  0  0  0  0  0  0  0  0
    3.4061   -3.0894    0.0000 H   0  0  0  0  0  0  0  0  0  0  0  0
    2.0000    2.4143    0.0000 H   0  0  0  0  0  0  0  0  0  0  0  0
    4.8175    5.4034    0.0000 H   0  0  0  0  0  0  0  0  0  0  0  0
    2.5458    4.7222    0.0000 H   0  0  0  0  0  0  0  0  0  0  0  0
  1 18  1  0  0  0  0
  1 22  1  0  0  0  0
  2 20  1  0  0  0  0
  2 23  1  0  0  0  0
  3 18  1  0  0  0  0
  3 52  1  0  0  0  0
  4 19  1  0  0  0  0
  4 54  1  0  0  0  0
  5 25  1  0  0  0  0
  5 29  1  0  0  0  0
  6 24  1  0  0  0  0
  6 57  1  0  0  0  0
  7 23  2  0  0  0  0
  8 28  1  0  0  0  0
  8 36  1  0  0  0  0
  9 31  1  0  0  0  0
  9 58  1  0  0  0  0
 10 32  1  0  0  0  0
 10 59  1  0  0  0  0
 11 36  2  0  0  0  0
 12 37  1  0  0  0  0
 12 62  1  0  0  0  0
 13 38  1  0  0  0  0
 13 63  1  0  0  0  0
 14 39  1  0  0  0  0
 14 66  1  0  0  0  0
 15 43  1  0  0  0  0
 15 67  1  0  0  0  0
 16 44  1  0  0  0  0
 16 68  1  0  0  0  0
 17 45  1  0  0  0  0
 17 69  1  0  0  0  0
 18 19  1  0  0  0  0
 18 20  1  0  0  0  0
 19 21  1  0  0  0  0
 19 23  1  0  0  0  0
 20 24  1  0  0  0  0
 20 46  1  0  0  0  0
 21 22  2  0  0  0  0
 21 25  1  0  0  0  0
 22 30  1  0  0  0  0
 24 32  1  0  0  0  0
 24 47  1  0  0  0  0
 25 26  2  0  0  0  0
 26 27  1  0  0  0  0
 26 31  1  0  0  0  0
 27 28  1  0  0  0  0
 27 48  1  0  0  0  0
 27 49  1  0  0  0  0
 28 29  1  0  0  0  0
 28 50  1  0  0  0  0
 29 33  1  0  0  0  0
 29 51  1  0  0  0  0
 30 31  2  0  0  0  0
 30 53  1  0  0  0  0
 32 55  1  0  0  0  0
 32 56  1  0  0  0  0
 33 34  2  0  0  0  0
 33 35  1  0  0  0  0
 34 38  1  0  0  0  0
 34 60  1  0  0  0  0
 35 37  2  0  0  0  0
 35 61  1  0  0  0  0
 36 40  1  0  0  0  0
 37 39  1  0  0  0  0
 38 39  2  0  0  0  0
 40 41  2  0  0  0  0
 40 42  1  0  0  0  0
 41 44  1  0  0  0  0
 41 64  1  0  0  0  0
 42 43  2  0  0  0  0
 42 65  1  0  0  0  0
 43 45  1  0  0  0  0
 44 45  2  0  0  0  0
M  END
> <PUBCHEM_COMPOUND_CID>
14520973

> <PUBCHEM_COMPOUND_CANONICALIZED>
1

> <PUBCHEM_CACTVS_COMPLEXITY>
1120

> <PUBCHEM_CACTVS_HBOND_ACCEPTOR>
17

> <PUBCHEM_CACTVS_HBOND_DONOR>
11

> <PUBCHEM_CACTVS_ROTATABLE_BOND>
6

> <PUBCHEM_CACTVS_SUBSKEYS>
AAADceB4PgAAAAAAAAAAAAAAAAAAASJAAAA0YMEAAAASAEiRUAAAGgAACAAADFSgmAIwDoAABgCIAiDSCAICCAAkIAAAiAFGiMgdNzaGNRqCeSGl4BUPuYfK7PzOoAADCAAIQABAAAYQABCAAAAAAAAAAA==

> <PUBCHEM_IUPAC_OPENEYE_NAME>
[13-(1,2-dihydroxyethyl)-8,12,16-trihydroxy-15-oxo-4-(3,4,5-trihydroxyphenyl)-3,11,14-trioxatetracyclo[8.6.0.02,7.012,16]hexadeca-1(10),2(7),8-trien-5-yl] 3,4,5-trihydroxybenzoate

> <PUBCHEM_IUPAC_CAS_NAME>
3,4,5-trihydroxybenzoic acid [13-(1,2-dihydroxyethyl)-8,12,16-trihydroxy-15-oxo-4-(3,4,5-trihydroxyphenyl)-3,11,14-trioxatetracyclo[8.6.0.02,7.012,16]hexadeca-1(10),2(7),8-trien-5-yl] ester

> <PUBCHEM_IUPAC_NAME_MARKUP>
[13-(1,2-dihydroxyethyl)-8,12,16-trihydroxy-15-oxo-4-(3,4,5-trihydroxyphenyl)-3,11,14-trioxatetracyclo[8.6.0.0<SUP>2,7</SUP>.0<SUP>12,16</SUP>]hexadeca-1(10),2(7),8-trien-5-yl] 3,4,5-trihydroxybenzoate

> <PUBCHEM_IUPAC_NAME>
[13-(1,2-dihydroxyethyl)-8,12,16-trihydroxy-15-oxo-4-(3,4,5-trihydroxyphenyl)-3,11,14-trioxatetracyclo[8.6.0.02,7.012,16]hexadeca-1(10),2(7),8-trien-5-yl] 3,4,5-trihydroxybenzoate

> <PUBCHEM_IUPAC_SYSTEMATIC_NAME>
[13-[1,2-bis(oxidanyl)ethyl]-8,12,16-tris(oxidanyl)-15-oxidanylidene-4-[3,4,5-tris(oxidanyl)phenyl]-3,11,14-trioxatetracyclo[8.6.0.02,7.012,16]hexadeca-1(10),2(7),8-trien-5-yl] 3,4,5-tris(oxidanyl)benzoate

> <PUBCHEM_IUPAC_TRADITIONAL_NAME>
3,4,5-trihydroxybenzoic acid [13-(1,2-dihydroxyethyl)-8,12,16-trihydroxy-15-keto-4-(3,4,5-trihydroxyphenyl)-3,11,14-trioxatetracyclo[8.6.0.02,7.012,16]hexadeca-1(10),2(7),8-trien-5-yl] ester

> <PUBCHEM_IUPAC_INCHI>
InChI=1S/C28H24O17/c29-7-16(35)24-28(41)27(40,26(39)44-24)19-17(45-28)6-11(30)10-5-18(42-25(38)9-3-14(33)21(37)15(34)4-9)22(43-23(10)19)8-1-12(31)20(36)13(32)2-8/h1-4,6,16,18,22,24,29-37,40-41H,5,7H2

> <PUBCHEM_IUPAC_INCHIKEY>
DKFWYWRZDCPNOB-UHFFFAOYSA-N

> <PUBCHEM_XLOGP3_AA>
-0.2

> <PUBCHEM_EXACT_MASS>
632.10134929

> <PUBCHEM_MOLECULAR_FORMULA>
C28H24O17

> <PUBCHEM_MOLECULAR_WEIGHT>
632.5

> <PUBCHEM_OPENEYE_CAN_SMILES>
C1C(C(OC2=C1C(=CC3=C2C4(C(=O)OC(C4(O3)O)C(CO)O)O)O)C5=CC(=C(C(=C5)O)O)O)OC(=O)C6=CC(=C(C(=C6)O)O)O

> <PUBCHEM_OPENEYE_ISO_SMILES>
C1C(C(OC2=C1C(=CC3=C2C4(C(=O)OC(C4(O3)O)C(CO)O)O)O)C5=CC(=C(C(=C5)O)O)O)OC(=O)C6=CC(=C(C(=C6)O)O)O

> <PUBCHEM_CACTVS_TPSA>
294

> <PUBCHEM_MONOISOTOPIC_WEIGHT>
632.10134929

> <PUBCHEM_TOTAL_CHARGE>
0

> <PUBCHEM_HEAVY_ATOM_COUNT>
45

> <PUBCHEM_ATOM_DEF_STEREO_COUNT>
0

> <PUBCHEM_ATOM_UDEF_STEREO_COUNT>
6

> <PUBCHEM_BOND_DEF_STEREO_COUNT>
0

> <PUBCHEM_BOND_UDEF_STEREO_COUNT>
0

> <PUBCHEM_ISOTOPIC_ATOM_COUNT>
0

> <PUBCHEM_COMPONENT_COUNT>
1

> <PUBCHEM_CACTVS_TAUTO_COUNT>
-1

> <PUBCHEM_COORDINATE_TYPE>
1
5
255

> <PUBCHEM_BONDANNOTATIONS>
20  2  3
21  22  8
21  25  8
22  30  8
25  26  8
26  31  8
29  33  3
18  3  3
30  31  8
33  34  8
33  35  8
34  38  8
35  37  8
37  39  8
38  39  8
19  4  3
40  41  8
40  42  8
41  44  8
42  43  8
43  45  8
44  45  8
24  6  3
28  8  3

$$$$
