101564135
  -OEChem-01042209312D

 41 41  0     1  0  0  0  0  0999 V2000
    3.3660    0.5205    0.0000 O   0  0  0  0  0  0  0  0  0  0  0  0
    5.5981   -2.3455    0.0000 O   0  0  0  0  0  0  0  0  0  0  0  0
    3.8660   -3.3455    0.0000 O   0  0  0  0  0  0  0  0  0  0  0  0
    3.8660    3.1186    0.0000 O   0  0  0  0  0  0  0  0  0  0  0  0
    3.0000   -0.8455    0.0000 C   0  0  0  0  0  0  0  0  0  0  0  0
    3.8660   -0.3455    0.0000 C   0  0  1  0  0  0  0  0  0  0  0  0
    4.7320   -0.8455    0.0000 C   0  0  1  0  0  0  0  0  0  0  0  0
    3.0000   -1.8455    0.0000 C   0  0  0  0  0  0  0  0  0  0  0  0
    4.7320   -1.8455    0.0000 C   0  0  2  0  0  0  0  0  0  0  0  0
    3.8660   -2.3455    0.0000 C   0  0  2  0  0  0  0  0  0  0  0  0
    2.0000   -0.8455    0.0000 C   0  0  0  0  0  0  0  0  0  0  0  0
    2.2340   -0.2027    0.0000 C   0  0  0  0  0  0  0  0  0  0  0  0
    4.3660    0.5205    0.0000 C   0  0  0  0  0  0  0  0  0  0  0  0
    5.5981   -0.3455    0.0000 C   0  0  0  0  0  0  0  0  0  0  0  0
    3.8660    1.3865    0.0000 C   0  0  0  0  0  0  0  0  0  0  0  0
    4.3660    2.2526    0.0000 C   0  0  1  0  0  0  0  0  0  0  0  0
    5.3660    2.2526    0.0000 C   0  0  0  0  0  0  0  0  0  0  0  0
    4.7320   -0.2255    0.0000 H   0  0  0  0  0  0  0  0  0  0  0  0
    2.3894   -1.7379    0.0000 H   0  0  0  0  0  0  0  0  0  0  0  0
    2.7880   -2.4281    0.0000 H   0  0  0  0  0  0  0  0  0  0  0  0
    4.7320   -2.4655    0.0000 H   0  0  0  0  0  0  0  0  0  0  0  0
    3.3291   -2.6555    0.0000 H   0  0  0  0  0  0  0  0  0  0  0  0
    2.0000   -0.2255    0.0000 H   0  0  0  0  0  0  0  0  0  0  0  0
    1.3800   -0.8455    0.0000 H   0  0  0  0  0  0  0  0  0  0  0  0
    2.0000   -1.4655    0.0000 H   0  0  0  0  0  0  0  0  0  0  0  0
    2.6325    0.2722    0.0000 H   0  0  0  0  0  0  0  0  0  0  0  0
    1.7590    0.1958    0.0000 H   0  0  0  0  0  0  0  0  0  0  0  0
    1.8354   -0.6777    0.0000 H   0  0  0  0  0  0  0  0  0  0  0  0
    4.9860    0.5205    0.0000 H   0  0  0  0  0  0  0  0  0  0  0  0
    5.9081   -0.8825    0.0000 H   0  0  0  0  0  0  0  0  0  0  0  0
    6.1350   -0.0355    0.0000 H   0  0  0  0  0  0  0  0  0  0  0  0
    5.2881    0.1914    0.0000 H   0  0  0  0  0  0  0  0  0  0  0  0
    2.7835    0.7327    0.0000 H   0  0  0  0  0  0  0  0  0  0  0  0
    5.5981   -2.9655    0.0000 H   0  0  0  0  0  0  0  0  0  0  0  0
    3.3291   -3.6555    0.0000 H   0  0  0  0  0  0  0  0  0  0  0  0
    3.2460    1.3865    0.0000 H   0  0  0  0  0  0  0  0  0  0  0  0
    3.7460    2.2526    0.0000 H   0  0  0  0  0  0  0  0  0  0  0  0
    5.3660    1.6326    0.0000 H   0  0  0  0  0  0  0  0  0  0  0  0
    5.9860    2.2526    0.0000 H   0  0  0  0  0  0  0  0  0  0  0  0
    5.3660    2.8726    0.0000 H   0  0  0  0  0  0  0  0  0  0  0  0
    4.1760    3.6555    0.0000 H   0  0  0  0  0  0  0  0  0  0  0  0
  6  1  1  6  0  0  0
  1 33  1  0  0  0  0
  9  2  1  1  0  0  0
  2 34  1  0  0  0  0
 10  3  1  6  0  0  0
  3 35  1  0  0  0  0
 16  4  1  6  0  0  0
  4 41  1  0  0  0  0
  5  6  1  0  0  0  0
  5  8  1  0  0  0  0
  5 11  1  0  0  0  0
  5 12  1  0  0  0  0
  6  7  1  0  0  0  0
  6 13  1  0  0  0  0
  7  9  1  0  0  0  0
  7 14  1  6  0  0  0
  7 18  1  0  0  0  0
  8 10  1  0  0  0  0
  8 19  1  0  0  0  0
  8 20  1  0  0  0  0
  9 10  1  0  0  0  0
  9 21  1  0  0  0  0
 10 22  1  0  0  0  0
 11 23  1  0  0  0  0
 11 24  1  0  0  0  0
 11 25  1  0  0  0  0
 12 26  1  0  0  0  0
 12 27  1  0  0  0  0
 12 28  1  0  0  0  0
 13 15  2  0  0  0  0
 13 29  1  0  0  0  0
 14 30  1  0  0  0  0
 14 31  1  0  0  0  0
 14 32  1  0  0  0  0
 15 16  1  0  0  0  0
 15 36  1  0  0  0  0
 16 17  1  0  0  0  0
 16 37  1  0  0  0  0
 17 38  1  0  0  0  0
 17 39  1  0  0  0  0
 17 40  1  0  0  0  0
M  END
> <PUBCHEM_COMPOUND_CID>
101564135

> <PUBCHEM_COMPOUND_CANONICALIZED>
1

> <PUBCHEM_CACTVS_COMPLEXITY>
300

> <PUBCHEM_CACTVS_HBOND_ACCEPTOR>
4

> <PUBCHEM_CACTVS_HBOND_DONOR>
4

> <PUBCHEM_CACTVS_ROTATABLE_BOND>
2

> <PUBCHEM_CACTVS_SUBSKEYS>
AAADceBwOAAAAAAAAAAAAAAAAAAAAAAAAAAwAAAAAAAAAAAAAAAAGgAACAAAD1SggAICAAAAAgCAACBCAAAAAAAgAAAICAAAAAgBFAIAAQAAUAAFgAAJEAPA4PQPgAAAAAAAAABCAAYQADCAAAAAAAAAAA==

> <PUBCHEM_IUPAC_OPENEYE_NAME>
(1R,2R,3R,4R)-4-[(E,3R)-3-hydroxybut-1-enyl]-3,5,5-trimethyl-cyclohexane-1,2,4-triol

> <PUBCHEM_IUPAC_CAS_NAME>
(1R,2R,3R,4R)-4-[(E,3R)-3-hydroxybut-1-enyl]-3,5,5-trimethylcyclohexane-1,2,4-triol

> <PUBCHEM_IUPAC_NAME_MARKUP>
(1<I>R</I>,2<I>R</I>,3<I>R</I>,4<I>R</I>)-4-[(<I>E</I>,3<I>R</I>)-3-hydroxybut-1-enyl]-3,5,5-trimethylcyclohexane-1,2,4-triol

> <PUBCHEM_IUPAC_NAME>
(1R,2R,3R,4R)-4-[(E,3R)-3-hydroxybut-1-enyl]-3,5,5-trimethylcyclohexane-1,2,4-triol

> <PUBCHEM_IUPAC_SYSTEMATIC_NAME>
(1R,2R,3R,4R)-3,5,5-trimethyl-4-[(E,3R)-3-oxidanylbut-1-enyl]cyclohexane-1,2,4-triol

> <PUBCHEM_IUPAC_TRADITIONAL_NAME>
(1R,2R,3R,4R)-4-[(E,3R)-3-hydroxybut-1-enyl]-3,5,5-trimethyl-cyclohexane-1,2,4-triol

> <PUBCHEM_IUPAC_INCHI>
InChI=1S/C13H24O4/c1-8(14)5-6-13(17)9(2)11(16)10(15)7-12(13,3)4/h5-6,8-11,14-17H,7H2,1-4H3/b6-5+/t8-,9-,10-,11-,13-/m1/s1

> <PUBCHEM_IUPAC_INCHIKEY>
GOTQJVUEKCNRKB-FLQLSLOQSA-N

> <PUBCHEM_XLOGP3_AA>
0.3

> <PUBCHEM_EXACT_MASS>
244.16745924

> <PUBCHEM_MOLECULAR_FORMULA>
C13H24O4

> <PUBCHEM_MOLECULAR_WEIGHT>
244.33

> <PUBCHEM_OPENEYE_CAN_SMILES>
CC1C(C(CC(C1(C=CC(C)O)O)(C)C)O)O

> <PUBCHEM_OPENEYE_ISO_SMILES>
C[C@@H]1[C@H]([C@@H](CC([C@]1(/C=C/[C@@H](C)O)O)(C)C)O)O

> <PUBCHEM_CACTVS_TPSA>
80.9

> <PUBCHEM_MONOISOTOPIC_WEIGHT>
244.16745924

> <PUBCHEM_TOTAL_CHARGE>
0

> <PUBCHEM_HEAVY_ATOM_COUNT>
17

> <PUBCHEM_ATOM_DEF_STEREO_COUNT>
5

> <PUBCHEM_ATOM_UDEF_STEREO_COUNT>
0

> <PUBCHEM_BOND_DEF_STEREO_COUNT>
1

> <PUBCHEM_BOND_UDEF_STEREO_COUNT>
0

> <PUBCHEM_ISOTOPIC_ATOM_COUNT>
0

> <PUBCHEM_COMPONENT_COUNT>
1

> <PUBCHEM_CACTVS_TAUTO_COUNT>
-1

> <PUBCHEM_COORDINATE_TYPE>
1
5
255

> <PUBCHEM_BONDANNOTATIONS>
6  1  6
9  2  5
10  3  6
16  4  6
7  14  6

$$$$
