131753156
  -OEChem-01072208542D

104105  0     1  0  0  0  0  0999 V2000
   13.9253   -1.8561    0.0000 O   0  0  0  0  0  0  0  0  0  0  0  0
   11.9573   -2.5554    0.0000 O   0  0  0  0  0  0  0  0  0  0  0  0
   15.8933   -2.5554    0.0000 O   0  0  0  0  0  0  0  0  0  0  0  0
   19.6090    0.7902    0.0000 O   0  0  0  0  0  0  0  0  0  0  0  0
   24.6916    1.8706    0.0000 O   0  0  0  0  0  0  0  0  0  0  0  0
   28.0719    1.9106    0.0000 O   0  0  0  0  0  0  0  0  0  0  0  0
   27.9786    0.1311    0.0000 O   0  0  0  0  0  0  0  0  0  0  0  0
   13.1163   -1.2683    0.0000 C   0  0  3  0  0  0  0  0  0  0  0  0
   14.7343   -1.2683    0.0000 C   0  0  3  0  0  0  0  0  0  0  0  0
   13.4253   -0.3172    0.0000 C   0  0  0  0  0  0  0  0  0  0  0  0
   14.4253   -0.3172    0.0000 C   0  0  0  0  0  0  0  0  0  0  0  0
   12.1652   -1.5773    0.0000 C   0  0  3  0  0  0  0  0  0  0  0  0
   15.6854   -1.5773    0.0000 C   0  0  3  0  0  0  0  0  0  0  0  0
   11.4221   -0.9082    0.0000 C   0  0  0  0  0  0  0  0  0  0  0  0
   16.4285   -0.9082    0.0000 C   0  0  0  0  0  0  0  0  0  0  0  0
   10.4710   -1.2172    0.0000 C   0  0  0  0  0  0  0  0  0  0  0  0
   17.3796   -1.2172    0.0000 C   0  0  0  0  0  0  0  0  0  0  0  0
    9.7279   -0.5481    0.0000 C   0  0  0  0  0  0  0  0  0  0  0  0
   18.1227   -0.5481    0.0000 C   0  0  0  0  0  0  0  0  0  0  0  0
    8.7768   -0.8571    0.0000 C   0  0  0  0  0  0  0  0  0  0  0  0
    8.0337   -0.1879    0.0000 C   0  0  0  0  0  0  0  0  0  0  0  0
   19.0738   -0.8571    0.0000 C   0  0  0  0  0  0  0  0  0  0  0  0
    7.0826   -0.4970    0.0000 C   0  0  0  0  0  0  0  0  0  0  0  0
    6.3395    0.1722    0.0000 C   0  0  0  0  0  0  0  0  0  0  0  0
   19.8169   -0.1879    0.0000 C   0  0  0  0  0  0  0  0  0  0  0  0
   20.7680   -0.4970    0.0000 C   0  0  0  0  0  0  0  0  0  0  0  0
    5.3884   -0.1368    0.0000 C   0  0  0  0  0  0  0  0  0  0  0  0
   21.5111    0.1722    0.0000 C   0  0  0  0  0  0  0  0  0  0  0  0
   22.4622   -0.1368    0.0000 C   0  0  0  0  0  0  0  0  0  0  0  0
    4.6453    0.5323    0.0000 C   0  0  0  0  0  0  0  0  0  0  0  0
   23.2053    0.5323    0.0000 C   0  0  0  0  0  0  0  0  0  0  0  0
   24.1564    0.2233    0.0000 C   0  0  0  0  0  0  0  0  0  0  0  0
   24.8995    0.8924    0.0000 C   0  0  3  0  0  0  0  0  0  0  0  0
    3.6942    0.2233    0.0000 C   0  0  0  0  0  0  0  0  0  0  0  0
   25.8506    0.5834    0.0000 C   0  0  0  0  0  0  0  0  0  0  0  0
    2.9511    0.8924    0.0000 C   0  0  0  0  0  0  0  0  0  0  0  0
   26.5937    1.2525    0.0000 C   0  0  0  0  0  0  0  0  0  0  0  0
   26.4892    2.2470    0.0000 C   0  0  0  0  0  0  0  0  0  0  0  0
    2.0000    0.5834    0.0000 C   0  0  0  0  0  0  0  0  0  0  0  0
   27.4027    2.6538    0.0000 C   0  0  0  0  0  0  0  0  0  0  0  0
   27.5719    1.0446    0.0000 C   0  0  0  0  0  0  0  0  0  0  0  0
   25.6232    2.7470    0.0000 C   0  0  0  0  0  0  0  0  0  0  0  0
   13.0193   -1.8806    0.0000 H   0  0  0  0  0  0  0  0  0  0  0  0
   14.8313   -1.8806    0.0000 H   0  0  0  0  0  0  0  0  0  0  0  0
   13.4901    0.2994    0.0000 H   0  0  0  0  0  0  0  0  0  0  0  0
   12.8188   -0.1883    0.0000 H   0  0  0  0  0  0  0  0  0  0  0  0
   15.0317   -0.1883    0.0000 H   0  0  0  0  0  0  0  0  0  0  0  0
   14.3605    0.2994    0.0000 H   0  0  0  0  0  0  0  0  0  0  0  0
   11.5756   -1.7689    0.0000 H   0  0  0  0  0  0  0  0  0  0  0  0
   16.2750   -1.7689    0.0000 H   0  0  0  0  0  0  0  0  0  0  0  0
   11.9106   -0.5265    0.0000 H   0  0  0  0  0  0  0  0  0  0  0  0
   11.1310   -0.3607    0.0000 H   0  0  0  0  0  0  0  0  0  0  0  0
   16.7196   -0.3607    0.0000 H   0  0  0  0  0  0  0  0  0  0  0  0
   15.9399   -0.5265    0.0000 H   0  0  0  0  0  0  0  0  0  0  0  0
    9.9824   -1.5989    0.0000 H   0  0  0  0  0  0  0  0  0  0  0  0
   10.7621   -1.7646    0.0000 H   0  0  0  0  0  0  0  0  0  0  0  0
   17.0885   -1.7646    0.0000 H   0  0  0  0  0  0  0  0  0  0  0  0
   17.8681   -1.5989    0.0000 H   0  0  0  0  0  0  0  0  0  0  0  0
   10.2164   -0.1663    0.0000 H   0  0  0  0  0  0  0  0  0  0  0  0
    9.4368   -0.0006    0.0000 H   0  0  0  0  0  0  0  0  0  0  0  0
   11.3676   -2.7470    0.0000 H   0  0  0  0  0  0  0  0  0  0  0  0
   16.4829   -2.7470    0.0000 H   0  0  0  0  0  0  0  0  0  0  0  0
   18.4138   -0.0006    0.0000 H   0  0  0  0  0  0  0  0  0  0  0  0
   17.6341   -0.1663    0.0000 H   0  0  0  0  0  0  0  0  0  0  0  0
    8.2882   -1.2388    0.0000 H   0  0  0  0  0  0  0  0  0  0  0  0
    9.0679   -1.4045    0.0000 H   0  0  0  0  0  0  0  0  0  0  0  0
    8.5222    0.1938    0.0000 H   0  0  0  0  0  0  0  0  0  0  0  0
    7.7426    0.3595    0.0000 H   0  0  0  0  0  0  0  0  0  0  0  0
   18.7827   -1.4045    0.0000 H   0  0  0  0  0  0  0  0  0  0  0  0
   19.5623   -1.2388    0.0000 H   0  0  0  0  0  0  0  0  0  0  0  0
    6.5940   -0.8787    0.0000 H   0  0  0  0  0  0  0  0  0  0  0  0
    7.3737   -1.0444    0.0000 H   0  0  0  0  0  0  0  0  0  0  0  0
    6.8280    0.5539    0.0000 H   0  0  0  0  0  0  0  0  0  0  0  0
    6.0484    0.7196    0.0000 H   0  0  0  0  0  0  0  0  0  0  0  0
   20.4769   -1.0444    0.0000 H   0  0  0  0  0  0  0  0  0  0  0  0
   21.2565   -0.8787    0.0000 H   0  0  0  0  0  0  0  0  0  0  0  0
    4.8998   -0.5186    0.0000 H   0  0  0  0  0  0  0  0  0  0  0  0
    5.6795   -0.6843    0.0000 H   0  0  0  0  0  0  0  0  0  0  0  0
   21.8022    0.7196    0.0000 H   0  0  0  0  0  0  0  0  0  0  0  0
   21.0225    0.5539    0.0000 H   0  0  0  0  0  0  0  0  0  0  0  0
   22.1711   -0.6843    0.0000 H   0  0  0  0  0  0  0  0  0  0  0  0
   22.9507   -0.5186    0.0000 H   0  0  0  0  0  0  0  0  0  0  0  0
    5.1338    0.9140    0.0000 H   0  0  0  0  0  0  0  0  0  0  0  0
    4.3542    1.0797    0.0000 H   0  0  0  0  0  0  0  0  0  0  0  0
   23.4964    1.0797    0.0000 H   0  0  0  0  0  0  0  0  0  0  0  0
   22.7167    0.9140    0.0000 H   0  0  0  0  0  0  0  0  0  0  0  0
   23.8653   -0.3242    0.0000 H   0  0  0  0  0  0  0  0  0  0  0  0
   24.6449   -0.1584    0.0000 H   0  0  0  0  0  0  0  0  0  0  0  0
   25.3603    1.3073    0.0000 H   0  0  0  0  0  0  0  0  0  0  0  0
    3.2056   -0.1584    0.0000 H   0  0  0  0  0  0  0  0  0  0  0  0
    3.9853   -0.3242    0.0000 H   0  0  0  0  0  0  0  0  0  0  0  0
   25.5595    0.0360    0.0000 H   0  0  0  0  0  0  0  0  0  0  0  0
   26.3391    0.2017    0.0000 H   0  0  0  0  0  0  0  0  0  0  0  0
    3.4396    1.2741    0.0000 H   0  0  0  0  0  0  0  0  0  0  0  0
    2.6600    1.4398    0.0000 H   0  0  0  0  0  0  0  0  0  0  0  0
   24.1019    2.0621    0.0000 H   0  0  0  0  0  0  0  0  0  0  0  0
    1.8084    1.1730    0.0000 H   0  0  0  0  0  0  0  0  0  0  0  0
    1.4103    0.3918    0.0000 H   0  0  0  0  0  0  0  0  0  0  0  0
    2.1916   -0.0063    0.0000 H   0  0  0  0  0  0  0  0  0  0  0  0
   27.9043    3.0182    0.0000 H   0  0  0  0  0  0  0  0  0  0  0  0
   27.0927    3.1907    0.0000 H   0  0  0  0  0  0  0  0  0  0  0  0
   25.9332    3.2840    0.0000 H   0  0  0  0  0  0  0  0  0  0  0  0
   25.0862    3.0570    0.0000 H   0  0  0  0  0  0  0  0  0  0  0  0
   25.3132    2.2101    0.0000 H   0  0  0  0  0  0  0  0  0  0  0  0
  1  8  1  0  0  0  0
  1  9  1  0  0  0  0
  2 12  1  0  0  0  0
  2 61  1  0  0  0  0
  3 13  1  0  0  0  0
  3 62  1  0  0  0  0
  4 25  2  0  0  0  0
  5 33  1  0  0  0  0
  5 96  1  0  0  0  0
  6 40  1  0  0  0  0
  6 41  1  0  0  0  0
  7 41  2  0  0  0  0
  8 10  1  0  0  0  0
  8 12  1  0  0  0  0
  8 43  1  0  0  0  0
  9 11  1  0  0  0  0
  9 13  1  0  0  0  0
  9 44  1  0  0  0  0
 10 11  1  0  0  0  0
 10 45  1  0  0  0  0
 10 46  1  0  0  0  0
 11 47  1  0  0  0  0
 11 48  1  0  0  0  0
 12 14  1  0  0  0  0
 12 49  1  0  0  0  0
 13 15  1  0  0  0  0
 13 50  1  0  0  0  0
 14 16  1  0  0  0  0
 14 51  1  0  0  0  0
 14 52  1  0  0  0  0
 15 17  1  0  0  0  0
 15 53  1  0  0  0  0
 15 54  1  0  0  0  0
 16 18  1  0  0  0  0
 16 55  1  0  0  0  0
 16 56  1  0  0  0  0
 17 19  1  0  0  0  0
 17 57  1  0  0  0  0
 17 58  1  0  0  0  0
 18 20  1  0  0  0  0
 18 59  1  0  0  0  0
 18 60  1  0  0  0  0
 19 22  1  0  0  0  0
 19 63  1  0  0  0  0
 19 64  1  0  0  0  0
 20 21  1  0  0  0  0
 20 65  1  0  0  0  0
 20 66  1  0  0  0  0
 21 23  1  0  0  0  0
 21 67  1  0  0  0  0
 21 68  1  0  0  0  0
 22 25  1  0  0  0  0
 22 69  1  0  0  0  0
 22 70  1  0  0  0  0
 23 24  1  0  0  0  0
 23 71  1  0  0  0  0
 23 72  1  0  0  0  0
 24 27  1  0  0  0  0
 24 73  1  0  0  0  0
 24 74  1  0  0  0  0
 25 26  1  0  0  0  0
 26 28  1  0  0  0  0
 26 75  1  0  0  0  0
 26 76  1  0  0  0  0
 27 30  1  0  0  0  0
 27 77  1  0  0  0  0
 27 78  1  0  0  0  0
 28 29  1  0  0  0  0
 28 79  1  0  0  0  0
 28 80  1  0  0  0  0
 29 31  1  0  0  0  0
 29 81  1  0  0  0  0
 29 82  1  0  0  0  0
 30 34  1  0  0  0  0
 30 83  1  0  0  0  0
 30 84  1  0  0  0  0
 31 32  1  0  0  0  0
 31 85  1  0  0  0  0
 31 86  1  0  0  0  0
 32 33  1  0  0  0  0
 32 87  1  0  0  0  0
 32 88  1  0  0  0  0
 33 35  1  0  0  0  0
 33 89  1  0  0  0  0
 34 36  1  0  0  0  0
 34 90  1  0  0  0  0
 34 91  1  0  0  0  0
 35 37  1  0  0  0  0
 35 92  1  0  0  0  0
 35 93  1  0  0  0  0
 36 39  1  0  0  0  0
 36 94  1  0  0  0  0
 36 95  1  0  0  0  0
 37 38  2  0  0  0  0
 37 41  1  0  0  0  0
 38 40  1  0  0  0  0
 38 42  1  0  0  0  0
 39 97  1  0  0  0  0
 39 98  1  0  0  0  0
 39 99  1  0  0  0  0
 40100  1  0  0  0  0
 40101  1  0  0  0  0
 42102  1  0  0  0  0
 42103  1  0  0  0  0
 42104  1  0  0  0  0
M  END
> <PUBCHEM_COMPOUND_CID>
131753156

> <PUBCHEM_COMPOUND_CANONICALIZED>
1

> <PUBCHEM_CACTVS_COMPLEXITY>
779

> <PUBCHEM_CACTVS_HBOND_ACCEPTOR>
7

> <PUBCHEM_CACTVS_HBOND_DONOR>
3

> <PUBCHEM_CACTVS_ROTATABLE_BOND>
26

> <PUBCHEM_CACTVS_SUBSKEYS>
AAADcfB8OAAAAAAAAAAAAAAAAAAAASIAAAAAAAAAAAAAAAAAAAAAGgAACAAADBSggAICCAAABgCIAoDQCAAAAAAgAAAACAEAAEgBFBIAIAACUAAEwAALIQPK6KSAAAAAAAAAAAAAAAAAAAAAAAAAAAAAAA==

> <PUBCHEM_IUPAC_OPENEYE_NAME>
4-[2,13-dihydroxy-13-[5-(1-hydroxytridecyl)tetrahydrofuran-2-yl]-8-oxo-tridecyl]-3-methyl-2H-furan-5-one

> <PUBCHEM_IUPAC_CAS_NAME>
4-[2,13-dihydroxy-13-[5-(1-hydroxytridecyl)-2-oxolanyl]-8-oxotridecyl]-3-methyl-2H-furan-5-one

> <PUBCHEM_IUPAC_NAME_MARKUP>
4-[2,13-dihydroxy-13-[5-(1-hydroxytridecyl)oxolan-2-yl]-8-oxotridecyl]-3-methyl-2<I>H</I>-furan-5-one

> <PUBCHEM_IUPAC_NAME>
4-[2,13-dihydroxy-13-[5-(1-hydroxytridecyl)oxolan-2-yl]-8-oxotridecyl]-3-methyl-2H-furan-5-one

> <PUBCHEM_IUPAC_SYSTEMATIC_NAME>
4-[2,13-bis(oxidanyl)-8-oxidanylidene-13-[5-(1-oxidanyltridecyl)oxolan-2-yl]tridecyl]-3-methyl-2H-furan-5-one

> <PUBCHEM_IUPAC_TRADITIONAL_NAME>
4-[2,13-dihydroxy-13-[5-(1-hydroxytridecyl)tetrahydrofuran-2-yl]-8-keto-tridecyl]-3-methyl-2H-furan-5-one

> <PUBCHEM_IUPAC_INCHI>
InChI=1S/C35H62O7/c1-3-4-5-6-7-8-9-10-11-15-21-31(38)33-23-24-34(42-33)32(39)22-17-16-19-28(36)18-13-12-14-20-29(37)25-30-27(2)26-41-35(30)40/h29,31-34,37-39H,3-26H2,1-2H3

> <PUBCHEM_IUPAC_INCHIKEY>
HGGYZUZQVNVDDD-UHFFFAOYSA-N

> <PUBCHEM_XLOGP3_AA>
7.4

> <PUBCHEM_EXACT_MASS>
594.44955431

> <PUBCHEM_MOLECULAR_FORMULA>
C35H62O7

> <PUBCHEM_MOLECULAR_WEIGHT>
594.9

> <PUBCHEM_OPENEYE_CAN_SMILES>
CCCCCCCCCCCCC(C1CCC(O1)C(CCCCC(=O)CCCCCC(CC2=C(COC2=O)C)O)O)O

> <PUBCHEM_OPENEYE_ISO_SMILES>
CCCCCCCCCCCCC(C1CCC(O1)C(CCCCC(=O)CCCCCC(CC2=C(COC2=O)C)O)O)O

> <PUBCHEM_CACTVS_TPSA>
113

> <PUBCHEM_MONOISOTOPIC_WEIGHT>
594.44955431

> <PUBCHEM_TOTAL_CHARGE>
0

> <PUBCHEM_HEAVY_ATOM_COUNT>
42

> <PUBCHEM_ATOM_DEF_STEREO_COUNT>
0

> <PUBCHEM_ATOM_UDEF_STEREO_COUNT>
5

> <PUBCHEM_BOND_DEF_STEREO_COUNT>
0

> <PUBCHEM_BOND_UDEF_STEREO_COUNT>
0

> <PUBCHEM_ISOTOPIC_ATOM_COUNT>
0

> <PUBCHEM_COMPONENT_COUNT>
1

> <PUBCHEM_CACTVS_TAUTO_COUNT>
-1

> <PUBCHEM_COORDINATE_TYPE>
1
5
255

> <PUBCHEM_BONDANNOTATIONS>
12  2  3
13  3  3
33  5  3
8  10  3
9  11  3

$$$$
