21626427
  -OEChem-01102200542D

141148  0     1  0  0  0  0  0999 V2000
   18.9596   -0.6279    0.0000 O   0  0  0  0  0  0  0  0  0  0  0  0
   20.8649    1.7109    0.0000 O   0  0  0  0  0  0  0  0  0  0  0  0
   12.9292   -0.0092    0.0000 O   0  0  0  0  0  0  0  0  0  0  0  0
   13.7953    1.4908    0.0000 O   0  0  0  0  0  0  0  0  0  0  0  0
   20.5362   -1.1981    0.0000 O   0  0  0  0  0  0  0  0  0  0  0  0
   11.1972   -0.0092    0.0000 O   0  0  0  0  0  0  0  0  0  0  0  0
   12.9292    1.9908    0.0000 O   0  0  0  0  0  0  0  0  0  0  0  0
   11.1972    2.9908    0.0000 O   0  0  0  0  0  0  0  0  0  0  0  0
    9.4651    1.9908    0.0000 O   0  0  0  0  0  0  0  0  0  0  0  0
    9.4651   -1.0092    0.0000 O   0  0  0  0  0  0  0  0  0  0  0  0
    7.7331   -1.0092    0.0000 O   0  0  0  0  0  0  0  0  0  0  0  0
    9.4651   -3.0092    0.0000 O   0  0  0  0  0  0  0  0  0  0  0  0
    7.7331   -4.0092    0.0000 O   0  0  0  0  0  0  0  0  0  0  0  0
    6.0010   -3.0092    0.0000 O   0  0  0  0  0  0  0  0  0  0  0  0
    6.0010   -0.0092    0.0000 O   0  0  0  0  0  0  0  0  0  0  0  0
    5.1350   -1.5092    0.0000 O   0  0  0  0  0  0  0  0  0  0  0  0
    4.2690   -4.0092    0.0000 O   0  0  0  0  0  0  0  0  0  0  0  0
    2.5369   -3.0092    0.0000 O   0  0  0  0  0  0  0  0  0  0  0  0
    2.5369   -1.0092    0.0000 O   0  0  0  0  0  0  0  0  0  0  0  0
   16.4691    0.9977    0.0000 C   0  0  1  0  0  0  0  0  0  0  0  0
   17.3390    1.4910    0.0000 C   0  0  1  0  0  0  0  0  0  0  0  0
   16.4614   -0.0023    0.0000 C   0  0  1  0  0  0  0  0  0  0  0  0
   18.2011    0.9843    0.0000 C   0  0  1  0  0  0  0  0  0  0  0  0
   15.5634   -0.5300    0.0000 C   0  0  2  0  0  0  0  0  0  0  0  0
   14.6613   -0.0092    0.0000 C   0  0  1  0  0  0  0  0  0  0  0  0
   18.9767    1.5847    0.0000 C   0  0  2  0  0  0  0  0  0  0  0  0
   18.1934   -0.0156    0.0000 C   0  0  1  0  0  0  0  0  0  0  0  0
   17.3236   -0.5090    0.0000 C   0  0  0  0  0  0  0  0  0  0  0  0
   15.5793    1.5392    0.0000 C   0  0  0  0  0  0  0  0  0  0  0  0
   17.2401    2.4894    0.0000 C   0  0  0  0  0  0  0  0  0  0  0  0
   14.6693    1.0324    0.0000 C   0  0  0  0  0  0  0  0  0  0  0  0
   15.3455   -1.5423    0.0000 C   0  0  1  0  0  0  0  0  0  0  0  0
   18.9610    2.5879    0.0000 C   0  0  1  0  0  0  0  0  0  0  0  0
   13.8936   -0.7041    0.0000 C   0  0  0  0  0  0  0  0  0  0  0  0
   16.1343    1.9400    0.0000 C   0  0  0  0  0  0  0  0  0  0  0  0
   18.0712    3.0515    0.0000 C   0  0  0  0  0  0  0  0  0  0  0  0
   16.7021    2.2620    0.0000 C   0  0  0  0  0  0  0  0  0  0  0  0
   14.3156   -1.6497    0.0000 C   0  0  0  0  0  0  0  0  0  0  0  0
   19.9303    1.3552    0.0000 C   0  0  1  0  0  0  0  0  0  0  0  0
   18.1875    2.1989    0.0000 C   0  0  0  0  0  0  0  0  0  0  0  0
   13.7953    0.4908    0.0000 C   0  0  0  0  0  0  0  0  0  0  0  0
   16.0133   -2.2866    0.0000 C   0  0  0  0  0  0  0  0  0  0  0  0
   20.3478    0.4678    0.0000 C   0  0  0  0  0  0  0  0  0  0  0  0
   19.4353    3.4683    0.0000 C   0  0  0  0  0  0  0  0  0  0  0  0
   19.9166   -0.4132    0.0000 C   0  0  0  0  0  0  0  0  0  0  0  0
   15.7026   -3.2371    0.0000 C   0  0  0  0  0  0  0  0  0  0  0  0
   18.9100    4.3192    0.0000 C   0  0  0  0  0  0  0  0  0  0  0  0
   16.9918   -2.0804    0.0000 C   0  0  0  0  0  0  0  0  0  0  0  0
   20.4349    3.4978    0.0000 C   0  0  0  0  0  0  0  0  0  0  0  0
   12.0632    0.4908    0.0000 C   0  0  2  0  0  0  0  0  0  0  0  0
   12.0632    1.4908    0.0000 C   0  0  1  0  0  0  0  0  0  0  0  0
   11.1972    1.9908    0.0000 C   0  0  2  0  0  0  0  0  0  0  0  0
   10.3312    0.4908    0.0000 C   0  0  1  0  0  0  0  0  0  0  0  0
   10.3312    1.4908    0.0000 C   0  0  1  0  0  0  0  0  0  0  0  0
    9.4651   -0.0092    0.0000 C   0  0  0  0  0  0  0  0  0  0  0  0
    8.5991   -1.5092    0.0000 C   0  0  2  0  0  0  0  0  0  0  0  0
    8.5991   -2.5092    0.0000 C   0  0  1  0  0  0  0  0  0  0  0  0
    7.7331   -3.0092    0.0000 C   0  0  2  0  0  0  0  0  0  0  0  0
    6.8671   -1.5092    0.0000 C   0  0  1  0  0  0  0  0  0  0  0  0
    6.8671   -2.5092    0.0000 C   0  0  1  0  0  0  0  0  0  0  0  0
    6.0010   -1.0092    0.0000 C   0  0  0  0  0  0  0  0  0  0  0  0
    5.1350   -2.5092    0.0000 C   0  0  2  0  0  0  0  0  0  0  0  0
    4.2690   -3.0092    0.0000 C   0  0  1  0  0  0  0  0  0  0  0  0
    3.4030   -2.5092    0.0000 C   0  0  1  0  0  0  0  0  0  0  0  0
    4.2690   -1.0092    0.0000 C   0  0  2  0  0  0  0  0  0  0  0  0
    3.4030   -1.5092    0.0000 C   0  0  2  0  0  0  0  0  0  0  0  0
    4.2690   -0.0092    0.0000 C   0  0  0  0  0  0  0  0  0  0  0  0
   16.4614   -0.8523    0.0000 H   0  0  0  0  0  0  0  0  0  0  0  0
   18.9339    0.5537    0.0000 H   0  0  0  0  0  0  0  0  0  0  0  0
   16.2523   -1.0279    0.0000 H   0  0  0  0  0  0  0  0  0  0  0  0
   18.1262   -0.8630    0.0000 H   0  0  0  0  0  0  0  0  0  0  0  0
   16.9214   -0.9808    0.0000 H   0  0  0  0  0  0  0  0  0  0  0  0
   17.7184   -0.9870    0.0000 H   0  0  0  0  0  0  0  0  0  0  0  0
   15.9875    2.0059    0.0000 H   0  0  0  0  0  0  0  0  0  0  0  0
   15.1894    2.0213    0.0000 H   0  0  0  0  0  0  0  0  0  0  0  0
   16.9820    3.0532    0.0000 H   0  0  0  0  0  0  0  0  0  0  0  0
   16.6416    2.3277    0.0000 H   0  0  0  0  0  0  0  0  0  0  0  0
   14.4648    1.6177    0.0000 H   0  0  0  0  0  0  0  0  0  0  0  0
   14.0577    0.9310    0.0000 H   0  0  0  0  0  0  0  0  0  0  0  0
   15.9447   -1.3831    0.0000 H   0  0  0  0  0  0  0  0  0  0  0  0
   19.5634    2.4410    0.0000 H   0  0  0  0  0  0  0  0  0  0  0  0
   13.5282   -0.2032    0.0000 H   0  0  0  0  0  0  0  0  0  0  0  0
   13.3571   -1.0149    0.0000 H   0  0  0  0  0  0  0  0  0  0  0  0
   16.7186    2.1475    0.0000 H   0  0  0  0  0  0  0  0  0  0  0  0
   15.9268    2.5242    0.0000 H   0  0  0  0  0  0  0  0  0  0  0  0
   15.5501    1.7324    0.0000 H   0  0  0  0  0  0  0  0  0  0  0  0
   18.4442    3.5467    0.0000 H   0  0  0  0  0  0  0  0  0  0  0  0
   17.6441    3.5009    0.0000 H   0  0  0  0  0  0  0  0  0  0  0  0
   17.1801    2.6568    0.0000 H   0  0  0  0  0  0  0  0  0  0  0  0
   16.3073    2.7400    0.0000 H   0  0  0  0  0  0  0  0  0  0  0  0
   16.2241    1.8671    0.0000 H   0  0  0  0  0  0  0  0  0  0  0  0
   13.7260   -1.8414    0.0000 H   0  0  0  0  0  0  0  0  0  0  0  0
   14.4443   -2.2562    0.0000 H   0  0  0  0  0  0  0  0  0  0  0  0
   19.8908    1.9740    0.0000 H   0  0  0  0  0  0  0  0  0  0  0  0
   18.5683    2.6882    0.0000 H   0  0  0  0  0  0  0  0  0  0  0  0
   17.6982    2.5797    0.0000 H   0  0  0  0  0  0  0  0  0  0  0  0
   17.8067    1.7096    0.0000 H   0  0  0  0  0  0  0  0  0  0  0  0
   20.8297    0.0777    0.0000 H   0  0  0  0  0  0  0  0  0  0  0  0
   20.8357    0.8504    0.0000 H   0  0  0  0  0  0  0  0  0  0  0  0
   21.3456    1.3193    0.0000 H   0  0  0  0  0  0  0  0  0  0  0  0
   15.1133   -3.0445    0.0000 H   0  0  0  0  0  0  0  0  0  0  0  0
   15.5100   -3.8265    0.0000 H   0  0  0  0  0  0  0  0  0  0  0  0
   16.2920   -3.4298    0.0000 H   0  0  0  0  0  0  0  0  0  0  0  0
   19.4376    4.6449    0.0000 H   0  0  0  0  0  0  0  0  0  0  0  0
   18.5843    4.8468    0.0000 H   0  0  0  0  0  0  0  0  0  0  0  0
   18.3824    3.9936    0.0000 H   0  0  0  0  0  0  0  0  0  0  0  0
   17.4059   -2.5419    0.0000 H   0  0  0  0  0  0  0  0  0  0  0  0
   17.1844   -1.4911    0.0000 H   0  0  0  0  0  0  0  0  0  0  0  0
   20.7605    2.9702    0.0000 H   0  0  0  0  0  0  0  0  0  0  0  0
   20.7289    4.0436    0.0000 H   0  0  0  0  0  0  0  0  0  0  0  0
   12.6002    0.8008    0.0000 H   0  0  0  0  0  0  0  0  0  0  0  0
   12.0632    2.1108    0.0000 H   0  0  0  0  0  0  0  0  0  0  0  0
   10.6603    2.3008    0.0000 H   0  0  0  0  0  0  0  0  0  0  0  0
   10.3312   -0.1292    0.0000 H   0  0  0  0  0  0  0  0  0  0  0  0
    9.7942    1.1808    0.0000 H   0  0  0  0  0  0  0  0  0  0  0  0
   12.9292    2.6108    0.0000 H   0  0  0  0  0  0  0  0  0  0  0  0
    9.2531    0.5734    0.0000 H   0  0  0  0  0  0  0  0  0  0  0  0
    8.8546   -0.1169    0.0000 H   0  0  0  0  0  0  0  0  0  0  0  0
   11.7341    3.3008    0.0000 H   0  0  0  0  0  0  0  0  0  0  0  0
    9.4651    2.6108    0.0000 H   0  0  0  0  0  0  0  0  0  0  0  0
    8.5991   -0.8892    0.0000 H   0  0  0  0  0  0  0  0  0  0  0  0
    8.5991   -3.1292    0.0000 H   0  0  0  0  0  0  0  0  0  0  0  0
    7.1962   -3.3192    0.0000 H   0  0  0  0  0  0  0  0  0  0  0  0
    6.8671   -0.8892    0.0000 H   0  0  0  0  0  0  0  0  0  0  0  0
    6.3301   -2.1992    0.0000 H   0  0  0  0  0  0  0  0  0  0  0  0
   10.0021   -2.6992    0.0000 H   0  0  0  0  0  0  0  0  0  0  0  0
    5.3905   -0.9016    0.0000 H   0  0  0  0  0  0  0  0  0  0  0  0
    5.7890   -1.5918    0.0000 H   0  0  0  0  0  0  0  0  0  0  0  0
    8.2700   -4.3192    0.0000 H   0  0  0  0  0  0  0  0  0  0  0  0
    5.1350   -3.1292    0.0000 H   0  0  0  0  0  0  0  0  0  0  0  0
    3.7320   -3.3192    0.0000 H   0  0  0  0  0  0  0  0  0  0  0  0
    6.5380    0.3008    0.0000 H   0  0  0  0  0  0  0  0  0  0  0  0
    2.8660   -2.1992    0.0000 H   0  0  0  0  0  0  0  0  0  0  0  0
    4.8059   -0.6992    0.0000 H   0  0  0  0  0  0  0  0  0  0  0  0
    3.4030   -0.8892    0.0000 H   0  0  0  0  0  0  0  0  0  0  0  0
    3.7320   -4.3192    0.0000 H   0  0  0  0  0  0  0  0  0  0  0  0
    4.8890   -0.0092    0.0000 H   0  0  0  0  0  0  0  0  0  0  0  0
    4.2690    0.6108    0.0000 H   0  0  0  0  0  0  0  0  0  0  0  0
    3.6490   -0.0092    0.0000 H   0  0  0  0  0  0  0  0  0  0  0  0
    2.0000   -2.6992    0.0000 H   0  0  0  0  0  0  0  0  0  0  0  0
    2.5369   -0.3892    0.0000 H   0  0  0  0  0  0  0  0  0  0  0  0
  1 27  1  0  0  0  0
  1 45  1  0  0  0  0
 39  2  1  6  0  0  0
  2100  1  0  0  0  0
  3 41  1  0  0  0  0
 50  3  1  6  0  0  0
  4 41  2  0  0  0  0
  5 45  2  0  0  0  0
  6 50  1  0  0  0  0
  6 53  1  0  0  0  0
 51  7  1  1  0  0  0
  7116  1  0  0  0  0
 52  8  1  6  0  0  0
  8119  1  0  0  0  0
 54  9  1  1  0  0  0
  9120  1  0  0  0  0
 10 55  1  0  0  0  0
 56 10  1  1  0  0  0
 11 56  1  0  0  0  0
 11 59  1  0  0  0  0
 57 12  1  6  0  0  0
 12126  1  0  0  0  0
 58 13  1  1  0  0  0
 13129  1  0  0  0  0
 60 14  1  6  0  0  0
 62 14  1  1  0  0  0
 15 61  1  0  0  0  0
 15132  1  0  0  0  0
 16 62  1  0  0  0  0
 16 65  1  0  0  0  0
 63 17  1  6  0  0  0
 17136  1  0  0  0  0
 64 18  1  6  0  0  0
 18140  1  0  0  0  0
 66 19  1  1  0  0  0
 19141  1  0  0  0  0
 20 21  1  0  0  0  0
 20 22  1  0  0  0  0
 20 29  1  0  0  0  0
 20 35  1  6  0  0  0
 21 23  1  0  0  0  0
 21 30  1  0  0  0  0
 21 37  1  1  0  0  0
 22 24  1  0  0  0  0
 22 28  1  0  0  0  0
 22 68  1  1  0  0  0
 23 26  1  0  0  0  0
 23 27  1  0  0  0  0
 23 69  1  6  0  0  0
 24 25  1  0  0  0  0
 24 32  1  0  0  0  0
 24 70  1  6  0  0  0
 25 31  1  0  0  0  0
 25 34  1  0  0  0  0
 25 41  1  1  0  0  0
 26 33  1  0  0  0  0
 26 39  1  0  0  0  0
 26 40  1  1  0  0  0
 27 28  1  0  0  0  0
 27 71  1  1  0  0  0
 28 72  1  0  0  0  0
 28 73  1  0  0  0  0
 29 31  1  0  0  0  0
 29 74  1  0  0  0  0
 29 75  1  0  0  0  0
 30 36  1  0  0  0  0
 30 76  1  0  0  0  0
 30 77  1  0  0  0  0
 31 78  1  0  0  0  0
 31 79  1  0  0  0  0
 32 38  1  0  0  0  0
 32 42  1  6  0  0  0
 32 80  1  0  0  0  0
 33 36  1  0  0  0  0
 33 44  1  1  0  0  0
 33 81  1  0  0  0  0
 34 38  1  0  0  0  0
 34 82  1  0  0  0  0
 34 83  1  0  0  0  0
 35 84  1  0  0  0  0
 35 85  1  0  0  0  0
 35 86  1  0  0  0  0
 36 87  1  0  0  0  0
 36 88  1  0  0  0  0
 37 89  1  0  0  0  0
 37 90  1  0  0  0  0
 37 91  1  0  0  0  0
 38 92  1  0  0  0  0
 38 93  1  0  0  0  0
 39 43  1  0  0  0  0
 39 94  1  0  0  0  0
 40 95  1  0  0  0  0
 40 96  1  0  0  0  0
 40 97  1  0  0  0  0
 42 46  1  0  0  0  0
 42 48  2  0  0  0  0
 43 45  1  0  0  0  0
 43 98  1  0  0  0  0
 43 99  1  0  0  0  0
 44 47  1  0  0  0  0
 44 49  2  0  0  0  0
 46101  1  0  0  0  0
 46102  1  0  0  0  0
 46103  1  0  0  0  0
 47104  1  0  0  0  0
 47105  1  0  0  0  0
 47106  1  0  0  0  0
 48107  1  0  0  0  0
 48108  1  0  0  0  0
 49109  1  0  0  0  0
 49110  1  0  0  0  0
 50 51  1  0  0  0  0
 50111  1  0  0  0  0
 51 52  1  0  0  0  0
 51112  1  0  0  0  0
 52 54  1  0  0  0  0
 52113  1  0  0  0  0
 53 54  1  0  0  0  0
 53 55  1  6  0  0  0
 53114  1  0  0  0  0
 54115  1  0  0  0  0
 55117  1  0  0  0  0
 55118  1  0  0  0  0
 56 57  1  0  0  0  0
 56121  1  0  0  0  0
 57 58  1  0  0  0  0
 57122  1  0  0  0  0
 58 60  1  0  0  0  0
 58123  1  0  0  0  0
 59 60  1  0  0  0  0
 59 61  1  1  0  0  0
 59124  1  0  0  0  0
 60125  1  0  0  0  0
 61127  1  0  0  0  0
 61128  1  0  0  0  0
 62 63  1  0  0  0  0
 62130  1  0  0  0  0
 63 64  1  0  0  0  0
 63131  1  0  0  0  0
 64 66  1  0  0  0  0
 64133  1  0  0  0  0
 65 66  1  0  0  0  0
 65 67  1  6  0  0  0
 65134  1  0  0  0  0
 66135  1  0  0  0  0
 67137  1  0  0  0  0
 67138  1  0  0  0  0
 67139  1  0  0  0  0
M  END
> <PUBCHEM_COMPOUND_CID>
21626427

> <PUBCHEM_COMPOUND_CANONICALIZED>
1

> <PUBCHEM_CACTVS_COMPLEXITY>
1880

> <PUBCHEM_CACTVS_HBOND_ACCEPTOR>
19

> <PUBCHEM_CACTVS_HBOND_DONOR>
10

> <PUBCHEM_CACTVS_ROTATABLE_BOND>
11

> <PUBCHEM_CACTVS_SUBSKEYS>
AAADcfB8PgAAAAAAAAAAAAAAAAAAAYAAAAA0aNECBIAAAGDAAAAAGgAACAAADxSwgAMCCAAABgCIAgDSCAAAAAAgAAAAAAEAAAgREBYAAQAiQAAFoAAHAAHI6PyPgAAAAAAAAADAAAYAADAAAQAACAAAAA==

> <PUBCHEM_IUPAC_OPENEYE_NAME>
[(2S,3R,4S,5S,6R)-6-[[(2R,3R,4R,5S,6R)-3,4-dihydroxy-6-(hydroxymethyl)-5-[(2S,3R,4R,5R,6S)-3,4,5-trihydroxy-6-methyl-tetrahydropyran-2-yl]oxy-tetrahydropyran-2-yl]oxymethyl]-3,4,5-trihydroxy-tetrahydropyran-2-yl] (1R,2R,5S,8R,9R,10R,12R,16R,17S,18S,21S)-16-hydroxy-8,18-diisopropenyl-1,2,17-trimethyl-14-oxo-13-oxapentacyclo[10.8.1.02,10.05,9.017,21]henicosane-5-carboxylate

> <PUBCHEM_IUPAC_CAS_NAME>
(1R,2R,5S,8R,9R,10R,12R,16R,17S,18S,21S)-16-hydroxy-1,2,17-trimethyl-8,18-bis(1-methylethenyl)-14-oxo-13-oxapentacyclo[10.8.1.02,10.05,9.017,21]heneicosane-5-carboxylic acid [(2S,3R,4S,5S,6R)-6-[[(2R,3R,4R,5S,6R)-3,4-dihydroxy-6-(hydroxymethyl)-5-[[(2S,3R,4R,5R,6S)-3,4,5-trihydroxy-6-methyl-2-oxanyl]oxy]-2-oxanyl]oxymethyl]-3,4,5-trihydroxy-2-oxanyl] ester

> <PUBCHEM_IUPAC_NAME_MARKUP>
[(2<I>S</I>,3<I>R</I>,4<I>S</I>,5<I>S</I>,6<I>R</I>)-6-[[(2<I>R</I>,3<I>R</I>,4<I>R</I>,5<I>S</I>,6<I>R</I>)-3,4-dihydroxy-6-(hydroxymethyl)-5-[(2<I>S</I>,3<I>R</I>,4<I>R</I>,5<I>R</I>,6<I>S</I>)-3,4,5-trihydroxy-6-methyloxan-2-yl]oxyoxan-2-yl]oxymethyl]-3,4,5-trihydroxyoxan-2-yl] (1<I>R</I>,2<I>R</I>,5<I>S</I>,8<I>R</I>,9<I>R</I>,10<I>R</I>,12<I>R</I>,16<I>R</I>,17<I>S</I>,18<I>S</I>,21<I>S</I>)-16-hydroxy-1,2,17-trimethyl-14-oxo-8,18-bis(prop-1-en-2-yl)-13-oxapentacyclo[10.8.1.0<SUP>2,10</SUP>.0<SUP>5,9</SUP>.0<SUP>17,21</SUP>]henicosane-5-carboxylate

> <PUBCHEM_IUPAC_NAME>
[(2S,3R,4S,5S,6R)-6-[[(2R,3R,4R,5S,6R)-3,4-dihydroxy-6-(hydroxymethyl)-5-[(2S,3R,4R,5R,6S)-3,4,5-trihydroxy-6-methyloxan-2-yl]oxyoxan-2-yl]oxymethyl]-3,4,5-trihydroxyoxan-2-yl] (1R,2R,5S,8R,9R,10R,12R,16R,17S,18S,21S)-16-hydroxy-1,2,17-trimethyl-14-oxo-8,18-bis(prop-1-en-2-yl)-13-oxapentacyclo[10.8.1.02,10.05,9.017,21]henicosane-5-carboxylate

> <PUBCHEM_IUPAC_SYSTEMATIC_NAME>
[(2S,3R,4S,5S,6R)-6-[[(2R,3R,4R,5S,6R)-6-(hydroxymethyl)-5-[(2S,3R,4R,5R,6S)-6-methyl-3,4,5-tris(oxidanyl)oxan-2-yl]oxy-3,4-bis(oxidanyl)oxan-2-yl]oxymethyl]-3,4,5-tris(oxidanyl)oxan-2-yl] (1R,2R,5S,8R,9R,10R,12R,16R,17S,18S,21S)-1,2,17-trimethyl-16-oxidanyl-14-oxidanylidene-8,18-bis(prop-1-en-2-yl)-13-oxapentacyclo[10.8.1.02,10.05,9.017,21]henicosane-5-carboxylate

> <PUBCHEM_IUPAC_TRADITIONAL_NAME>
(1R,2R,5S,8R,9R,10R,12R,16R,17S,18S,21S)-16-hydroxy-8,18-diisopropenyl-14-keto-1,2,17-trimethyl-13-oxapentacyclo[10.8.1.02,10.05,9.017,21]heneicosane-5-carboxylic acid [(2S,3R,4S,5S,6R)-6-[[(2R,3R,4R,5S,6R)-3,4-dihydroxy-6-methylol-5-[(2S,3R,4R,5R,6S)-3,4,5-trihydroxy-6-methyl-tetrahydropyran-2-yl]oxy-tetrahydropyran-2-yl]oxymethyl]-3,4,5-trihydroxy-tetrahydropyran-2-yl] ester

> <PUBCHEM_IUPAC_INCHI>
InChI=1S/C48H74O19/c1-19(2)22-9-12-48(14-13-45(6)24(30(22)48)15-25-40-46(45,7)11-10-23(20(3)4)47(40,8)28(50)16-29(51)63-25)44(60)67-43-37(58)34(55)32(53)27(65-43)18-61-41-38(59)35(56)39(26(17-49)64-41)66-42-36(57)33(54)31(52)21(5)62-42/h21-28,30-43,49-50,52-59H,1,3,9-18H2,2,4-8H3/t21-,22-,23-,24+,25+,26+,27+,28+,30+,31-,32+,33+,34-,35+,36+,37+,38+,39+,40-,41+,42-,43-,45+,46+,47+,48-/m0/s1

> <PUBCHEM_IUPAC_INCHIKEY>
JVLBOZIUMGNKQW-JBPVHNHLSA-N

> <PUBCHEM_XLOGP3_AA>
1.1

> <PUBCHEM_EXACT_MASS>
954.48243013

> <PUBCHEM_MOLECULAR_FORMULA>
C48H74O19

> <PUBCHEM_MOLECULAR_WEIGHT>
955.1

> <PUBCHEM_OPENEYE_CAN_SMILES>
CC1C(C(C(C(O1)OC2C(OC(C(C2O)O)OCC3C(C(C(C(O3)OC(=O)C45CCC(C4C6CC7C8C(C6(CC5)C)(CCC(C8(C(CC(=O)O7)O)C)C(=C)C)C)C(=C)C)O)O)O)CO)O)O)O

> <PUBCHEM_OPENEYE_ISO_SMILES>
C[C@H]1[C@@H]([C@H]([C@H]([C@@H](O1)O[C@@H]2[C@H](O[C@H]([C@@H]([C@H]2O)O)OC[C@@H]3[C@H]([C@@H]([C@H]([C@@H](O3)OC(=O)[C@]45CC[C@H]([C@@H]4[C@H]6C[C@@H]7[C@H]8[C@]([C@@]6(CC5)C)(CC[C@H]([C@@]8([C@@H](CC(=O)O7)O)C)C(=C)C)C)C(=C)C)O)O)O)CO)O)O)O

> <PUBCHEM_CACTVS_TPSA>
301

> <PUBCHEM_MONOISOTOPIC_WEIGHT>
954.48243013

> <PUBCHEM_TOTAL_CHARGE>
0

> <PUBCHEM_HEAVY_ATOM_COUNT>
67

> <PUBCHEM_ATOM_DEF_STEREO_COUNT>
26

> <PUBCHEM_ATOM_UDEF_STEREO_COUNT>
0

> <PUBCHEM_BOND_DEF_STEREO_COUNT>
0

> <PUBCHEM_BOND_UDEF_STEREO_COUNT>
0

> <PUBCHEM_ISOTOPIC_ATOM_COUNT>
0

> <PUBCHEM_COMPONENT_COUNT>
1

> <PUBCHEM_CACTVS_TAUTO_COUNT>
-1

> <PUBCHEM_COORDINATE_TYPE>
1
5
255

> <PUBCHEM_BONDANNOTATIONS>
56  10  5
57  12  6
58  13  5
60  14  6
62  14  5
63  17  6
64  18  6
66  19  5
39  2  6
20  35  6
21  37  5
22  68  5
23  69  6
24  70  6
25  41  5
26  40  5
27  71  5
50  3  6
32  42  6
33  44  5
53  55  6
59  61  5
65  67  6
51  7  5
52  8  6
54  9  5

$$$$
