46173930
  -OEChem-01102201062D

144150  0     1  0  0  0  0  0999 V2000
    8.6284    3.3253    0.0000 O   0  0  0  0  0  0  0  0  0  0  0  0
   10.3312   -2.8649    0.0000 O   0  0  0  0  0  0  0  0  0  0  0  0
   10.6369    5.7170    0.0000 O   0  0  0  0  0  0  0  0  0  0  0  0
    8.5991   -2.8649    0.0000 O   0  0  0  0  0  0  0  0  0  0  0  0
   10.3312   -4.8649    0.0000 O   0  0  0  0  0  0  0  0  0  0  0  0
    8.5991   -5.8649    0.0000 O   0  0  0  0  0  0  0  0  0  0  0  0
    6.8671   -4.8649    0.0000 O   0  0  0  0  0  0  0  0  0  0  0  0
    6.0010   -3.3649    0.0000 O   0  0  0  0  0  0  0  0  0  0  0  0
    9.4651   -6.3649    0.0000 O   0  0  0  0  0  0  0  0  0  0  0  0
   12.0632   -5.8649    0.0000 O   0  0  0  0  0  0  0  0  0  0  0  0
   12.0632   -7.8649    0.0000 O   0  0  0  0  0  0  0  0  0  0  0  0
    5.1350   -1.8649    0.0000 O   0  0  0  0  0  0  0  0  0  0  0  0
   10.3312   -8.8649    0.0000 O   0  0  0  0  0  0  0  0  0  0  0  0
    8.5991   -8.8649    0.0000 O   0  0  0  0  0  0  0  0  0  0  0  0
    4.2690   -4.3649    0.0000 O   0  0  0  0  0  0  0  0  0  0  0  0
    2.5369   -3.3649    0.0000 O   0  0  0  0  0  0  0  0  0  0  0  0
    2.5369   -1.3649    0.0000 O   0  0  0  0  0  0  0  0  0  0  0  0
   11.2322    1.8353    0.0000 C   0  0  1  0  0  0  0  0  0  0  0  0
   11.2284    2.8353    0.0000 C   0  0  1  0  0  0  0  0  0  0  0  0
   10.3681    1.3320    0.0000 C   0  0  1  0  0  0  0  0  0  0  0  0
   10.3561    0.2904    0.0000 C   0  0  2  0  0  0  0  0  0  0  0  0
   10.3604    3.3320    0.0000 C   0  0  1  0  0  0  0  0  0  0  0  0
   11.2562   -0.2339    0.0000 C   0  0  1  0  0  0  0  0  0  0  0  0
   12.1442    1.3320    0.0000 C   0  0  0  0  0  0  0  0  0  0  0  0
    9.5002    1.8286    0.0000 C   0  0  0  0  0  0  0  0  0  0  0  0
   10.5659    4.3046    0.0000 C   0  0  2  0  0  0  0  0  0  0  0  0
    9.4963    2.8286    0.0000 C   0  0  1  0  0  0  0  0  0  0  0  0
   11.9628    3.5052    0.0000 C   0  0  0  0  0  0  0  0  0  0  0  0
   12.1562    0.2904    0.0000 C   0  0  0  0  0  0  0  0  0  0  0  0
   11.2687   -1.3188    0.0000 C   0  0  0  0  0  0  0  0  0  0  0  0
   11.5542    4.4114    0.0000 C   0  0  0  0  0  0  0  0  0  0  0  0
    9.4062   -0.2339    0.0000 C   0  0  0  0  0  0  0  0  0  0  0  0
   12.2164    2.0128    0.0000 C   0  0  0  0  0  0  0  0  0  0  0  0
   12.2138    2.6655    0.0000 C   0  0  0  0  0  0  0  0  0  0  0  0
    9.4920    0.7938    0.0000 C   0  0  0  0  0  0  0  0  0  0  0  0
   10.3312   -1.8649    0.0000 C   0  0  2  0  0  0  0  0  0  0  0  0
    9.3936   -1.3188    0.0000 C   0  0  0  0  0  0  0  0  0  0  0  0
    9.8952    5.0463    0.0000 C   0  0  2  0  0  0  0  0  0  0  0  0
   12.2687   -1.3111    0.0000 C   0  0  0  0  0  0  0  0  0  0  0  0
   11.7754   -2.1809    0.0000 C   0  0  0  0  0  0  0  0  0  0  0  0
    9.2245    5.7880    0.0000 C   0  0  0  0  0  0  0  0  0  0  0  0
    9.1534    4.3756    0.0000 C   0  0  0  0  0  0  0  0  0  0  0  0
    9.5315    6.7397    0.0000 C   0  0  0  0  0  0  0  0  0  0  0  0
    9.4651   -3.3649    0.0000 C   0  0  2  0  0  0  0  0  0  0  0  0
    9.4651   -4.3649    0.0000 C   0  0  1  0  0  0  0  0  0  0  0  0
    8.8608    7.4815    0.0000 C   0  0  0  0  0  0  0  0  0  0  0  0
    8.5991   -4.8649    0.0000 C   0  0  2  0  0  0  0  0  0  0  0  0
    7.7331   -3.3649    0.0000 C   0  0  1  0  0  0  0  0  0  0  0  0
    7.7331   -4.3649    0.0000 C   0  0  1  0  0  0  0  0  0  0  0  0
    9.1678    8.4332    0.0000 C   0  0  0  0  0  0  0  0  0  0  0  0
    6.8671   -2.8649    0.0000 C   0  0  0  0  0  0  0  0  0  0  0  0
   10.3312   -5.8649    0.0000 C   0  0  2  0  0  0  0  0  0  0  0  0
    8.4970    9.1749    0.0000 C   0  0  0  0  0  0  0  0  0  0  0  0
   10.1455    8.6432    0.0000 C   0  0  0  0  0  0  0  0  0  0  0  0
   11.1972   -6.3649    0.0000 C   0  0  1  0  0  0  0  0  0  0  0  0
   11.1972   -7.3649    0.0000 C   0  0  2  0  0  0  0  0  0  0  0  0
    9.4651   -7.3649    0.0000 C   0  0  1  0  0  0  0  0  0  0  0  0
   10.3312   -7.8649    0.0000 C   0  0  1  0  0  0  0  0  0  0  0  0
    5.1350   -2.8649    0.0000 C   0  0  2  0  0  0  0  0  0  0  0  0
    8.5991   -7.8649    0.0000 C   0  0  0  0  0  0  0  0  0  0  0  0
    4.2690   -3.3649    0.0000 C   0  0  1  0  0  0  0  0  0  0  0  0
    3.4030   -2.8649    0.0000 C   0  0  2  0  0  0  0  0  0  0  0  0
    4.2690   -1.3649    0.0000 C   0  0  0  0  0  0  0  0  0  0  0  0
    3.4030   -1.8649    0.0000 C   0  0  1  0  0  0  0  0  0  0  0  0
   11.1026    0.9042    0.0000 H   0  0  0  0  0  0  0  0  0  0  0  0
    9.6715    3.8298    0.0000 H   0  0  0  0  0  0  0  0  0  0  0  0
   11.9955   -0.6532    0.0000 H   0  0  0  0  0  0  0  0  0  0  0  0
   12.7562    1.2330    0.0000 H   0  0  0  0  0  0  0  0  0  0  0  0
   12.3465    1.9181    0.0000 H   0  0  0  0  0  0  0  0  0  0  0  0
    8.8892    1.9340    0.0000 H   0  0  0  0  0  0  0  0  0  0  0  0
    9.2904    1.2452    0.0000 H   0  0  0  0  0  0  0  0  0  0  0  0
   10.8685    5.0989    0.0000 H   0  0  0  0  0  0  0  0  0  0  0  0
    9.4939    3.4486    0.0000 H   0  0  0  0  0  0  0  0  0  0  0  0
   12.3302    3.0058    0.0000 H   0  0  0  0  0  0  0  0  0  0  0  0
   12.4981    3.8181    0.0000 H   0  0  0  0  0  0  0  0  0  0  0  0
   12.3720   -0.2908    0.0000 H   0  0  0  0  0  0  0  0  0  0  0  0
   12.7658    0.4036    0.0000 H   0  0  0  0  0  0  0  0  0  0  0  0
   12.1431    4.6055    0.0000 H   0  0  0  0  0  0  0  0  0  0  0  0
   11.4231    5.0174    0.0000 H   0  0  0  0  0  0  0  0  0  0  0  0
    9.2039    0.3522    0.0000 H   0  0  0  0  0  0  0  0  0  0  0  0
    8.7941   -0.3329    0.0000 H   0  0  0  0  0  0  0  0  0  0  0  0
   12.3264    1.4026    0.0000 H   0  0  0  0  0  0  0  0  0  0  0  0
   12.8265    2.1228    0.0000 H   0  0  0  0  0  0  0  0  0  0  0  0
   12.1063    2.6229    0.0000 H   0  0  0  0  0  0  0  0  0  0  0  0
   12.1085    2.0545    0.0000 H   0  0  0  0  0  0  0  0  0  0  0  0
   12.8248    2.5602    0.0000 H   0  0  0  0  0  0  0  0  0  0  0  0
   12.3191    3.2765    0.0000 H   0  0  0  0  0  0  0  0  0  0  0  0
    9.8041    1.3295    0.0000 H   0  0  0  0  0  0  0  0  0  0  0  0
    8.9563    1.1058    0.0000 H   0  0  0  0  0  0  0  0  0  0  0  0
    9.1799    0.2580    0.0000 H   0  0  0  0  0  0  0  0  0  0  0  0
   10.8687   -2.1739    0.0000 H   0  0  0  0  0  0  0  0  0  0  0  0
    8.7840   -1.2056    0.0000 H   0  0  0  0  0  0  0  0  0  0  0  0
    9.1778   -1.9000    0.0000 H   0  0  0  0  0  0  0  0  0  0  0  0
   12.2734   -1.9311    0.0000 H   0  0  0  0  0  0  0  0  0  0  0  0
   12.8887   -1.3063    0.0000 H   0  0  0  0  0  0  0  0  0  0  0  0
   12.2639   -0.6911    0.0000 H   0  0  0  0  0  0  0  0  0  0  0  0
   11.2408   -2.4951    0.0000 H   0  0  0  0  0  0  0  0  0  0  0  0
   12.0895   -2.7155    0.0000 H   0  0  0  0  0  0  0  0  0  0  0  0
   12.3099   -1.8668    0.0000 H   0  0  0  0  0  0  0  0  0  0  0  0
    8.0927    3.0132    0.0000 H   0  0  0  0  0  0  0  0  0  0  0  0
    8.6764    6.0779    0.0000 H   0  0  0  0  0  0  0  0  0  0  0  0
    8.8438    5.2987    0.0000 H   0  0  0  0  0  0  0  0  0  0  0  0
    8.7376    4.8355    0.0000 H   0  0  0  0  0  0  0  0  0  0  0  0
    8.6936    3.9598    0.0000 H   0  0  0  0  0  0  0  0  0  0  0  0
    9.5693    3.9157    0.0000 H   0  0  0  0  0  0  0  0  0  0  0  0
   10.5067    6.3232    0.0000 H   0  0  0  0  0  0  0  0  0  0  0  0
   10.0795    6.4498    0.0000 H   0  0  0  0  0  0  0  0  0  0  0  0
    9.9121    7.2291    0.0000 H   0  0  0  0  0  0  0  0  0  0  0  0
   10.0021   -3.6749    0.0000 H   0  0  0  0  0  0  0  0  0  0  0  0
    9.4651   -4.9849    0.0000 H   0  0  0  0  0  0  0  0  0  0  0  0
    8.2546    7.3513    0.0000 H   0  0  0  0  0  0  0  0  0  0  0  0
    9.1360   -5.1749    0.0000 H   0  0  0  0  0  0  0  0  0  0  0  0
    7.7331   -2.7449    0.0000 H   0  0  0  0  0  0  0  0  0  0  0  0
    7.7331   -4.9849    0.0000 H   0  0  0  0  0  0  0  0  0  0  0  0
    7.2656   -2.3899    0.0000 H   0  0  0  0  0  0  0  0  0  0  0  0
    6.4685   -2.3899    0.0000 H   0  0  0  0  0  0  0  0  0  0  0  0
    9.7942   -5.5549    0.0000 H   0  0  0  0  0  0  0  0  0  0  0  0
    8.0622   -6.1749    0.0000 H   0  0  0  0  0  0  0  0  0  0  0  0
    6.8671   -5.4849    0.0000 H   0  0  0  0  0  0  0  0  0  0  0  0
    8.9569    9.5907    0.0000 H   0  0  0  0  0  0  0  0  0  0  0  0
    8.0812    9.6348    0.0000 H   0  0  0  0  0  0  0  0  0  0  0  0
    8.0372    8.7591    0.0000 H   0  0  0  0  0  0  0  0  0  0  0  0
   10.2756    8.0370    0.0000 H   0  0  0  0  0  0  0  0  0  0  0  0
   10.7516    8.7734    0.0000 H   0  0  0  0  0  0  0  0  0  0  0  0
   10.0153    9.2493    0.0000 H   0  0  0  0  0  0  0  0  0  0  0  0
   11.7341   -6.6749    0.0000 H   0  0  0  0  0  0  0  0  0  0  0  0
   11.1972   -7.9849    0.0000 H   0  0  0  0  0  0  0  0  0  0  0  0
    8.9282   -7.0549    0.0000 H   0  0  0  0  0  0  0  0  0  0  0  0
    9.7942   -8.1749    0.0000 H   0  0  0  0  0  0  0  0  0  0  0  0
    5.1350   -3.4849    0.0000 H   0  0  0  0  0  0  0  0  0  0  0  0
   12.6002   -6.1749    0.0000 H   0  0  0  0  0  0  0  0  0  0  0  0
    8.3871   -7.2823    0.0000 H   0  0  0  0  0  0  0  0  0  0  0  0
    7.9885   -7.9726    0.0000 H   0  0  0  0  0  0  0  0  0  0  0  0
    3.7320   -3.6749    0.0000 H   0  0  0  0  0  0  0  0  0  0  0  0
   12.6002   -7.5549    0.0000 H   0  0  0  0  0  0  0  0  0  0  0  0
   10.8681   -9.1749    0.0000 H   0  0  0  0  0  0  0  0  0  0  0  0
    2.8660   -2.5549    0.0000 H   0  0  0  0  0  0  0  0  0  0  0  0
    4.6675   -0.8900    0.0000 H   0  0  0  0  0  0  0  0  0  0  0  0
    3.8705   -0.8900    0.0000 H   0  0  0  0  0  0  0  0  0  0  0  0
    3.4030   -1.2449    0.0000 H   0  0  0  0  0  0  0  0  0  0  0  0
    9.1360   -9.1749    0.0000 H   0  0  0  0  0  0  0  0  0  0  0  0
    3.7320   -4.6749    0.0000 H   0  0  0  0  0  0  0  0  0  0  0  0
    2.0000   -3.0549    0.0000 H   0  0  0  0  0  0  0  0  0  0  0  0
    2.5369   -0.7449    0.0000 H   0  0  0  0  0  0  0  0  0  0  0  0
 27  1  1  1  0  0  0
  1100  1  0  0  0  0
 36  2  1  1  0  0  0
 44  2  1  1  0  0  0
 38  3  1  1  0  0  0
  3106  1  0  0  0  0
  4 44  1  0  0  0  0
  4 48  1  0  0  0  0
 45  5  1  6  0  0  0
 52  5  1  1  0  0  0
 47  6  1  1  0  0  0
  6118  1  0  0  0  0
 49  7  1  6  0  0  0
  7119  1  0  0  0  0
  8 51  1  0  0  0  0
 59  8  1  1  0  0  0
  9 52  1  0  0  0  0
  9 57  1  0  0  0  0
 55 10  1  6  0  0  0
 10131  1  0  0  0  0
 56 11  1  1  0  0  0
 11135  1  0  0  0  0
 12 59  1  0  0  0  0
 12 63  1  0  0  0  0
 58 13  1  6  0  0  0
 13136  1  0  0  0  0
 14 60  1  0  0  0  0
 14141  1  0  0  0  0
 61 15  1  6  0  0  0
 15142  1  0  0  0  0
 62 16  1  1  0  0  0
 16143  1  0  0  0  0
 64 17  1  6  0  0  0
 17144  1  0  0  0  0
 18 19  1  0  0  0  0
 18 20  1  0  0  0  0
 18 24  1  0  0  0  0
 18 33  1  1  0  0  0
 19 22  1  0  0  0  0
 19 28  1  0  0  0  0
 19 34  1  6  0  0  0
 20 21  1  0  0  0  0
 20 25  1  0  0  0  0
 20 65  1  6  0  0  0
 21 23  1  0  0  0  0
 21 32  1  0  0  0  0
 21 35  1  1  0  0  0
 22 26  1  0  0  0  0
 22 27  1  0  0  0  0
 22 66  1  1  0  0  0
 23 29  1  0  0  0  0
 23 30  1  0  0  0  0
 23 67  1  6  0  0  0
 24 29  1  0  0  0  0
 24 68  1  0  0  0  0
 24 69  1  0  0  0  0
 25 27  1  0  0  0  0
 25 70  1  0  0  0  0
 25 71  1  0  0  0  0
 26 31  1  0  0  0  0
 26 38  1  0  0  0  0
 26 72  1  6  0  0  0
 27 73  1  0  0  0  0
 28 31  1  0  0  0  0
 28 74  1  0  0  0  0
 28 75  1  0  0  0  0
 29 76  1  0  0  0  0
 29 77  1  0  0  0  0
 30 36  1  0  0  0  0
 30 39  1  0  0  0  0
 30 40  1  0  0  0  0
 31 78  1  0  0  0  0
 31 79  1  0  0  0  0
 32 37  1  0  0  0  0
 32 80  1  0  0  0  0
 32 81  1  0  0  0  0
 33 82  1  0  0  0  0
 33 83  1  0  0  0  0
 33 84  1  0  0  0  0
 34 85  1  0  0  0  0
 34 86  1  0  0  0  0
 34 87  1  0  0  0  0
 35 88  1  0  0  0  0
 35 89  1  0  0  0  0
 35 90  1  0  0  0  0
 36 37  1  0  0  0  0
 36 91  1  0  0  0  0
 37 92  1  0  0  0  0
 37 93  1  0  0  0  0
 38 41  1  0  0  0  0
 38 42  1  0  0  0  0
 39 94  1  0  0  0  0
 39 95  1  0  0  0  0
 39 96  1  0  0  0  0
 40 97  1  0  0  0  0
 40 98  1  0  0  0  0
 40 99  1  0  0  0  0
 41 43  1  0  0  0  0
 41101  1  0  0  0  0
 41102  1  0  0  0  0
 42103  1  0  0  0  0
 42104  1  0  0  0  0
 42105  1  0  0  0  0
 43 46  1  0  0  0  0
 43107  1  0  0  0  0
 43108  1  0  0  0  0
 44 45  1  0  0  0  0
 44109  1  0  0  0  0
 45 47  1  0  0  0  0
 45110  1  0  0  0  0
 46 50  2  0  0  0  0
 46111  1  0  0  0  0
 47 49  1  0  0  0  0
 47112  1  0  0  0  0
 48 49  1  0  0  0  0
 48 51  1  1  0  0  0
 48113  1  0  0  0  0
 49114  1  0  0  0  0
 50 53  1  0  0  0  0
 50 54  1  0  0  0  0
 51115  1  0  0  0  0
 51116  1  0  0  0  0
 52 55  1  0  0  0  0
 52117  1  0  0  0  0
 53120  1  0  0  0  0
 53121  1  0  0  0  0
 53122  1  0  0  0  0
 54123  1  0  0  0  0
 54124  1  0  0  0  0
 54125  1  0  0  0  0
 55 56  1  0  0  0  0
 55126  1  0  0  0  0
 56 58  1  0  0  0  0
 56127  1  0  0  0  0
 57 58  1  0  0  0  0
 57 60  1  1  0  0  0
 57128  1  0  0  0  0
 58129  1  0  0  0  0
 59 61  1  0  0  0  0
 59130  1  0  0  0  0
 60132  1  0  0  0  0
 60133  1  0  0  0  0
 61 62  1  0  0  0  0
 61134  1  0  0  0  0
 62 64  1  0  0  0  0
 62137  1  0  0  0  0
 63 64  1  0  0  0  0
 63138  1  0  0  0  0
 63139  1  0  0  0  0
 64140  1  0  0  0  0
M  END
> <PUBCHEM_COMPOUND_CID>
46173930

> <PUBCHEM_COMPOUND_CANONICALIZED>
1

> <PUBCHEM_CACTVS_COMPLEXITY>
1630

> <PUBCHEM_CACTVS_HBOND_ACCEPTOR>
17

> <PUBCHEM_CACTVS_HBOND_DONOR>
11

> <PUBCHEM_CACTVS_ROTATABLE_BOND>
12

> <PUBCHEM_CACTVS_SUBSKEYS>
AAADcfB8PgAAAAAAAAAAAAAAAAAAAYAAAAA0aNECAAAAAGDAAAAAGgAACAAAD1SwgAMCCAAABgCAAiBCAAAAAAAgAAAACAAAAAgREAIAAQAiQAAFgAAPAAPA4PwPgAAAAAAAAADAAAYAADAAAQAACAAAAA==

> <PUBCHEM_IUPAC_OPENEYE_NAME>
(2S,3R,4S,5S,6R)-2-[(2R,3R,4S,5S,6R)-4,5-dihydroxy-2-[[(3S,5R,8R,9R,10R,12R,13R,14R,17S)-12-hydroxy-17-[(1S)-1-hydroxy-1,5-dimethyl-hex-4-enyl]-4,4,8,10,14-pentamethyl-2,3,5,6,7,9,11,12,13,15,16,17-dodecahydro-1H-cyclopenta[a]phenanthren-3-yl]oxy]-6-[[(2S,3R,4S,5R)-3,4,5-trihydroxytetrahydropyran-2-yl]oxymethyl]tetrahydropyran-3-yl]oxy-6-(hydroxymethyl)tetrahydropyran-3,4,5-triol

> <PUBCHEM_IUPAC_CAS_NAME>
(2S,3R,4S,5S,6R)-2-[[(2R,3R,4S,5S,6R)-4,5-dihydroxy-2-[[(3S,5R,8R,9R,10R,12R,13R,14R,17S)-12-hydroxy-17-[(2S)-2-hydroxy-6-methylhept-5-en-2-yl]-4,4,8,10,14-pentamethyl-2,3,5,6,7,9,11,12,13,15,16,17-dodecahydro-1H-cyclopenta[a]phenanthren-3-yl]oxy]-6-[[(2S,3R,4S,5R)-3,4,5-trihydroxy-2-oxanyl]oxymethyl]-3-oxanyl]oxy]-6-(hydroxymethyl)oxane-3,4,5-triol

> <PUBCHEM_IUPAC_NAME_MARKUP>
(2<I>S</I>,3<I>R</I>,4<I>S</I>,5<I>S</I>,6<I>R</I>)-2-[(2<I>R</I>,3<I>R</I>,4<I>S</I>,5<I>S</I>,6<I>R</I>)-4,5-dihydroxy-2-[[(3<I>S</I>,5<I>R</I>,8<I>R</I>,9<I>R</I>,10<I>R</I>,12<I>R</I>,13<I>R</I>,14<I>R</I>,17<I>S</I>)-12-hydroxy-17-[(2<I>S</I>)-2-hydroxy-6-methylhept-5-en-2-yl]-4,4,8,10,14-pentamethyl-2,3,5,6,7,9,11,12,13,15,16,17-dodecahydro-1<I>H</I>-cyclopenta[a]phenanthren-3-yl]oxy]-6-[[(2<I>S</I>,3<I>R</I>,4<I>S</I>,5<I>R</I>)-3,4,5-trihydroxyoxan-2-yl]oxymethyl]oxan-3-yl]oxy-6-(hydroxymethyl)oxane-3,4,5-triol

> <PUBCHEM_IUPAC_NAME>
(2S,3R,4S,5S,6R)-2-[(2R,3R,4S,5S,6R)-4,5-dihydroxy-2-[[(3S,5R,8R,9R,10R,12R,13R,14R,17S)-12-hydroxy-17-[(2S)-2-hydroxy-6-methylhept-5-en-2-yl]-4,4,8,10,14-pentamethyl-2,3,5,6,7,9,11,12,13,15,16,17-dodecahydro-1H-cyclopenta[a]phenanthren-3-yl]oxy]-6-[[(2S,3R,4S,5R)-3,4,5-trihydroxyoxan-2-yl]oxymethyl]oxan-3-yl]oxy-6-(hydroxymethyl)oxane-3,4,5-triol

> <PUBCHEM_IUPAC_SYSTEMATIC_NAME>
(2S,3R,4S,5S,6R)-2-[(2R,3R,4S,5S,6R)-4,5-bis(oxidanyl)-2-[[(3S,5R,8R,9R,10R,12R,13R,14R,17S)-4,4,8,10,14-pentamethyl-17-[(2S)-6-methyl-2-oxidanyl-hept-5-en-2-yl]-12-oxidanyl-2,3,5,6,7,9,11,12,13,15,16,17-dodecahydro-1H-cyclopenta[a]phenanthren-3-yl]oxy]-6-[[(2S,3R,4S,5R)-3,4,5-tris(oxidanyl)oxan-2-yl]oxymethyl]oxan-3-yl]oxy-6-(hydroxymethyl)oxane-3,4,5-triol

> <PUBCHEM_IUPAC_TRADITIONAL_NAME>
(2S,3R,4S,5S,6R)-2-[(2R,3R,4S,5S,6R)-4,5-dihydroxy-2-[[(3S,5R,8R,9R,10R,12R,13R,14R,17S)-12-hydroxy-17-[(1S)-1-hydroxy-1,5-dimethyl-hex-4-enyl]-4,4,8,10,14-pentamethyl-2,3,5,6,7,9,11,12,13,15,16,17-dodecahydro-1H-cyclopenta[a]phenanthren-3-yl]oxy]-6-[[(2S,3R,4S,5R)-3,4,5-trihydroxytetrahydropyran-2-yl]oxymethyl]tetrahydropyran-3-yl]oxy-6-methylol-tetrahydropyran-3,4,5-triol

> <PUBCHEM_IUPAC_INCHI>
InChI=1S/C47H80O17/c1-22(2)10-9-14-47(8,58)23-11-16-46(7)31(23)24(49)18-29-44(5)15-13-30(43(3,4)28(44)12-17-45(29,46)6)63-42-39(64-41-38(57)35(54)33(52)26(19-48)61-41)36(55)34(53)27(62-42)21-60-40-37(56)32(51)25(50)20-59-40/h10,23-42,48-58H,9,11-21H2,1-8H3/t23-,24+,25+,26+,27+,28-,29+,30-,31-,32-,33+,34+,35-,36-,37+,38+,39+,40-,41-,42-,44-,45+,46+,47-/m0/s1

> <PUBCHEM_IUPAC_INCHIKEY>
ZICDJKZDHVLVOD-HUGMCNGHSA-N

> <PUBCHEM_XLOGP3_AA>
1.9

> <PUBCHEM_EXACT_MASS>
916.53955108

> <PUBCHEM_MOLECULAR_FORMULA>
C47H80O17

> <PUBCHEM_MOLECULAR_WEIGHT>
917.1

> <PUBCHEM_OPENEYE_CAN_SMILES>
CC(=CCCC(C)(C1CCC2(C1C(CC3C2(CCC4C3(CCC(C4(C)C)OC5C(C(C(C(O5)COC6C(C(C(CO6)O)O)O)O)O)OC7C(C(C(C(O7)CO)O)O)O)C)C)O)C)O)C

> <PUBCHEM_OPENEYE_ISO_SMILES>
CC(=CCC[C@@](C)([C@H]1CC[C@@]2([C@@H]1[C@@H](C[C@H]3[C@]2(CC[C@@H]4[C@@]3(CC[C@@H](C4(C)C)O[C@H]5[C@@H]([C@H]([C@@H]([C@H](O5)CO[C@H]6[C@@H]([C@H]([C@@H](CO6)O)O)O)O)O)O[C@H]7[C@@H]([C@H]([C@@H]([C@H](O7)CO)O)O)O)C)C)O)C)O)C

> <PUBCHEM_CACTVS_TPSA>
278

> <PUBCHEM_MONOISOTOPIC_WEIGHT>
916.53955108

> <PUBCHEM_TOTAL_CHARGE>
0

> <PUBCHEM_HEAVY_ATOM_COUNT>
64

> <PUBCHEM_ATOM_DEF_STEREO_COUNT>
24

> <PUBCHEM_ATOM_UDEF_STEREO_COUNT>
0

> <PUBCHEM_BOND_DEF_STEREO_COUNT>
0

> <PUBCHEM_BOND_UDEF_STEREO_COUNT>
0

> <PUBCHEM_ISOTOPIC_ATOM_COUNT>
0

> <PUBCHEM_COMPONENT_COUNT>
1

> <PUBCHEM_CACTVS_TAUTO_COUNT>
-1

> <PUBCHEM_COORDINATE_TYPE>
1
5
255

> <PUBCHEM_BONDANNOTATIONS>
27  1  5
55  10  6
56  11  5
58  13  6
61  15  6
62  16  5
64  17  6
18  33  5
19  34  6
36  2  5
44  2  5
20  65  6
21  35  5
22  66  5
23  67  6
26  72  6
38  3  5
48  51  5
45  5  6
52  5  5
57  60  5
47  6  5
49  7  6
59  8  5

$$$$
