158891
  -OEChem-01102204162D

102107  0     1  0  0  0  0  0999 V2000
    6.8671   -3.1941    0.0000 O   0  0  0  0  0  0  0  0  0  0  0  0
    9.3112   -2.5024    0.0000 O   0  0  0  0  0  0  0  0  0  0  0  0
    8.6209    6.0853    0.0000 O   0  0  0  0  0  0  0  0  0  0  0  0
    9.5042    4.5954    0.0000 O   0  0  0  0  0  0  0  0  0  0  0  0
    5.1350   -3.1941    0.0000 O   0  0  0  0  0  0  0  0  0  0  0  0
    6.8671   -5.1941    0.0000 O   0  0  0  0  0  0  0  0  0  0  0  0
    5.1350   -6.1941    0.0000 O   0  0  0  0  0  0  0  0  0  0  0  0
    3.4030   -5.1941    0.0000 O   0  0  0  0  0  0  0  0  0  0  0  0
    2.5369   -3.6941    0.0000 O   0  0  0  0  0  0  0  0  0  0  0  0
    3.4030   -2.1941    0.0000 O   0  0  0  0  0  0  0  0  0  0  0  0
    7.7681    1.5061    0.0000 C   0  0  2  0  0  0  0  0  0  0  0  0
    6.9040    1.0028    0.0000 C   0  0  1  0  0  0  0  0  0  0  0  0
    6.8920   -0.0388    0.0000 C   0  0  2  0  0  0  0  0  0  0  0  0
    7.7643    2.5061    0.0000 C   0  0  1  0  0  0  0  0  0  0  0  0
    7.7920   -0.5631    0.0000 C   0  0  2  0  0  0  0  0  0  0  0  0
    8.6801    1.0028    0.0000 C   0  0  0  0  0  0  0  0  0  0  0  0
    7.8046   -1.6480    0.0000 C   0  0  1  0  0  0  0  0  0  0  0  0
    8.6921   -0.0388    0.0000 C   0  0  0  0  0  0  0  0  0  0  0  0
    6.8963    3.0027    0.0000 C   0  0  0  0  0  0  0  0  0  0  0  0
    5.9421   -0.5631    0.0000 C   0  0  0  0  0  0  0  0  0  0  0  0
    6.0361    1.4994    0.0000 C   0  0  0  0  0  0  0  0  0  0  0  0
    6.8762    4.0442    0.0000 C   0  0  1  0  0  0  0  0  0  0  0  0
    8.6723    3.0164    0.0000 C   0  0  0  0  0  0  0  0  0  0  0  0
    7.7722    4.5754    0.0000 C   0  0  1  0  0  0  0  0  0  0  0  0
    6.8671   -2.1941    0.0000 C   0  0  2  0  0  0  0  0  0  0  0  0
    8.7522    1.6835    0.0000 C   0  0  0  0  0  0  0  0  0  0  0  0
    8.6763    4.0580    0.0000 C   0  0  0  0  0  0  0  0  0  0  0  0
    6.0279    0.4645    0.0000 C   0  0  0  0  0  0  0  0  0  0  0  0
    5.9295   -1.6480    0.0000 C   0  0  0  0  0  0  0  0  0  0  0  0
    6.0322    2.4994    0.0000 C   0  0  0  0  0  0  0  0  0  0  0  0
    8.7497    2.3362    0.0000 C   0  0  0  0  0  0  0  0  0  0  0  0
    5.9223    4.5611    0.0000 C   0  0  0  0  0  0  0  0  0  0  0  0
    7.7764    5.6604    0.0000 C   0  0  0  0  0  0  0  0  0  0  0  0
    5.9014    5.6459    0.0000 C   0  0  0  0  0  0  0  0  0  0  0  0
    8.8046   -1.6403    0.0000 C   0  0  0  0  0  0  0  0  0  0  0  0
    8.3113   -2.5102    0.0000 C   0  0  0  0  0  0  0  0  0  0  0  0
    6.8347    6.1992    0.0000 C   0  0  0  0  0  0  0  0  0  0  0  0
    8.6324    5.0854    0.0000 C   0  0  0  0  0  0  0  0  0  0  0  0
    5.3881    6.5041    0.0000 C   0  0  0  0  0  0  0  0  0  0  0  0
    4.9015    5.6305    0.0000 C   0  0  0  0  0  0  0  0  0  0  0  0
    6.0010   -3.6941    0.0000 C   0  0  2  0  0  0  0  0  0  0  0  0
    6.0010   -4.6941    0.0000 C   0  0  1  0  0  0  0  0  0  0  0  0
    5.1350   -5.1941    0.0000 C   0  0  2  0  0  0  0  0  0  0  0  0
    4.2690   -3.6941    0.0000 C   0  0  1  0  0  0  0  0  0  0  0  0
    4.2690   -4.6941    0.0000 C   0  0  1  0  0  0  0  0  0  0  0  0
    3.4030   -3.1941    0.0000 C   0  0  0  0  0  0  0  0  0  0  0  0
    7.6385    0.5749    0.0000 H   0  0  0  0  0  0  0  0  0  0  0  0
    8.5314   -0.9824    0.0000 H   0  0  0  0  0  0  0  0  0  0  0  0
    9.2921    0.9037    0.0000 H   0  0  0  0  0  0  0  0  0  0  0  0
    8.8824    1.5888    0.0000 H   0  0  0  0  0  0  0  0  0  0  0  0
    8.9079   -0.6200    0.0000 H   0  0  0  0  0  0  0  0  0  0  0  0
    9.3017    0.0743    0.0000 H   0  0  0  0  0  0  0  0  0  0  0  0
    5.7398    0.0230    0.0000 H   0  0  0  0  0  0  0  0  0  0  0  0
    5.3300   -0.6621    0.0000 H   0  0  0  0  0  0  0  0  0  0  0  0
    5.4251    1.6047    0.0000 H   0  0  0  0  0  0  0  0  0  0  0  0
    5.8263    0.9160    0.0000 H   0  0  0  0  0  0  0  0  0  0  0  0
    6.1502    3.6023    0.0000 H   0  0  0  0  0  0  0  0  0  0  0  0
    8.8791    2.4319    0.0000 H   0  0  0  0  0  0  0  0  0  0  0  0
    9.2836    3.1202    0.0000 H   0  0  0  0  0  0  0  0  0  0  0  0
    7.4046   -2.5031    0.0000 H   0  0  0  0  0  0  0  0  0  0  0  0
    8.8623    1.0734    0.0000 H   0  0  0  0  0  0  0  0  0  0  0  0
    9.3624    1.7936    0.0000 H   0  0  0  0  0  0  0  0  0  0  0  0
    8.6422    2.2937    0.0000 H   0  0  0  0  0  0  0  0  0  0  0  0
    9.2868    3.9496    0.0000 H   0  0  0  0  0  0  0  0  0  0  0  0
    8.8876    4.6409    0.0000 H   0  0  0  0  0  0  0  0  0  0  0  0
    6.3400    1.0003    0.0000 H   0  0  0  0  0  0  0  0  0  0  0  0
    5.4922    0.7766    0.0000 H   0  0  0  0  0  0  0  0  0  0  0  0
    5.7158   -0.0712    0.0000 H   0  0  0  0  0  0  0  0  0  0  0  0
    5.3199   -1.5349    0.0000 H   0  0  0  0  0  0  0  0  0  0  0  0
    5.7137   -2.2292    0.0000 H   0  0  0  0  0  0  0  0  0  0  0  0
    5.4941    2.8073    0.0000 H   0  0  0  0  0  0  0  0  0  0  0  0
    8.6444    1.7252    0.0000 H   0  0  0  0  0  0  0  0  0  0  0  0
    9.3607    2.2309    0.0000 H   0  0  0  0  0  0  0  0  0  0  0  0
    8.8550    2.9472    0.0000 H   0  0  0  0  0  0  0  0  0  0  0  0
    5.3095    4.6554    0.0000 H   0  0  0  0  0  0  0  0  0  0  0  0
    5.7246    3.9735    0.0000 H   0  0  0  0  0  0  0  0  0  0  0  0
    8.3869    5.5519    0.0000 H   0  0  0  0  0  0  0  0  0  0  0  0
    7.9877    6.2433    0.0000 H   0  0  0  0  0  0  0  0  0  0  0  0
    9.3855   -1.4238    0.0000 H   0  0  0  0  0  0  0  0  0  0  0  0
    8.6922   -1.0306    0.0000 H   0  0  0  0  0  0  0  0  0  0  0  0
    7.7767   -2.8243    0.0000 H   0  0  0  0  0  0  0  0  0  0  0  0
    8.6254   -3.0447    0.0000 H   0  0  0  0  0  0  0  0  0  0  0  0
    8.8458   -2.1960    0.0000 H   0  0  0  0  0  0  0  0  0  0  0  0
    7.2302    6.6767    0.0000 H   0  0  0  0  0  0  0  0  0  0  0  0
    6.4319    6.6706    0.0000 H   0  0  0  0  0  0  0  0  0  0  0  0
    5.9202    6.8224    0.0000 H   0  0  0  0  0  0  0  0  0  0  0  0
    5.0699    7.0362    0.0000 H   0  0  0  0  0  0  0  0  0  0  0  0
    4.8560    6.1859    0.0000 H   0  0  0  0  0  0  0  0  0  0  0  0
    4.8920    6.2504    0.0000 H   0  0  0  0  0  0  0  0  0  0  0  0
    4.2816    5.6209    0.0000 H   0  0  0  0  0  0  0  0  0  0  0  0
    4.9111    5.0106    0.0000 H   0  0  0  0  0  0  0  0  0  0  0  0
    6.0010   -3.0741    0.0000 H   0  0  0  0  0  0  0  0  0  0  0  0
    9.9312   -2.4977    0.0000 H   0  0  0  0  0  0  0  0  0  0  0  0
    9.1542    6.4015    0.0000 H   0  0  0  0  0  0  0  0  0  0  0  0
    6.0010   -5.3141    0.0000 H   0  0  0  0  0  0  0  0  0  0  0  0
    4.5981   -5.5041    0.0000 H   0  0  0  0  0  0  0  0  0  0  0  0
    4.2690   -3.0741    0.0000 H   0  0  0  0  0  0  0  0  0  0  0  0
    3.7320   -4.3841    0.0000 H   0  0  0  0  0  0  0  0  0  0  0  0
    7.4040   -4.8841    0.0000 H   0  0  0  0  0  0  0  0  0  0  0  0
    5.6720   -6.5041    0.0000 H   0  0  0  0  0  0  0  0  0  0  0  0
    3.4030   -5.8141    0.0000 H   0  0  0  0  0  0  0  0  0  0  0  0
    2.0000   -3.3841    0.0000 H   0  0  0  0  0  0  0  0  0  0  0  0
 25  1  1  1  0  0  0
 41  1  1  1  0  0  0
  2 35  1  0  0  0  0
  2 93  1  0  0  0  0
  3 38  1  0  0  0  0
  3 94  1  0  0  0  0
  4 38  2  0  0  0  0
  5 41  1  0  0  0  0
  5 44  1  0  0  0  0
 42  6  1  6  0  0  0
  6 99  1  0  0  0  0
 43  7  1  1  0  0  0
  7100  1  0  0  0  0
 45  8  1  6  0  0  0
  8101  1  0  0  0  0
  9 46  1  0  0  0  0
  9102  1  0  0  0  0
 10 46  2  0  0  0  0
 11 12  1  0  0  0  0
 11 14  1  0  0  0  0
 11 16  1  0  0  0  0
 11 26  1  1  0  0  0
 12 13  1  0  0  0  0
 12 21  1  0  0  0  0
 12 47  1  6  0  0  0
 13 15  1  0  0  0  0
 13 20  1  0  0  0  0
 13 28  1  1  0  0  0
 14 19  1  0  0  0  0
 14 23  1  0  0  0  0
 14 31  1  6  0  0  0
 15 17  1  0  0  0  0
 15 18  1  0  0  0  0
 15 48  1  6  0  0  0
 16 18  1  0  0  0  0
 16 49  1  0  0  0  0
 16 50  1  0  0  0  0
 17 25  1  0  0  0  0
 17 35  1  0  0  0  0
 17 36  1  1  0  0  0
 18 51  1  0  0  0  0
 18 52  1  0  0  0  0
 19 22  1  0  0  0  0
 19 30  2  0  0  0  0
 20 29  1  0  0  0  0
 20 53  1  0  0  0  0
 20 54  1  0  0  0  0
 21 30  1  0  0  0  0
 21 55  1  0  0  0  0
 21 56  1  0  0  0  0
 22 24  1  0  0  0  0
 22 32  1  0  0  0  0
 22 57  1  1  0  0  0
 23 27  1  0  0  0  0
 23 58  1  0  0  0  0
 23 59  1  0  0  0  0
 24 27  1  0  0  0  0
 24 33  1  0  0  0  0
 24 38  1  1  0  0  0
 25 29  1  0  0  0  0
 25 60  1  0  0  0  0
 26 61  1  0  0  0  0
 26 62  1  0  0  0  0
 26 63  1  0  0  0  0
 27 64  1  0  0  0  0
 27 65  1  0  0  0  0
 28 66  1  0  0  0  0
 28 67  1  0  0  0  0
 28 68  1  0  0  0  0
 29 69  1  0  0  0  0
 29 70  1  0  0  0  0
 30 71  1  0  0  0  0
 31 72  1  0  0  0  0
 31 73  1  0  0  0  0
 31 74  1  0  0  0  0
 32 34  1  0  0  0  0
 32 75  1  0  0  0  0
 32 76  1  0  0  0  0
 33 37  1  0  0  0  0
 33 77  1  0  0  0  0
 33 78  1  0  0  0  0
 34 37  1  0  0  0  0
 34 39  1  0  0  0  0
 34 40  1  0  0  0  0
 35 79  1  0  0  0  0
 35 80  1  0  0  0  0
 36 81  1  0  0  0  0
 36 82  1  0  0  0  0
 36 83  1  0  0  0  0
 37 84  1  0  0  0  0
 37 85  1  0  0  0  0
 39 86  1  0  0  0  0
 39 87  1  0  0  0  0
 39 88  1  0  0  0  0
 40 89  1  0  0  0  0
 40 90  1  0  0  0  0
 40 91  1  0  0  0  0
 41 42  1  0  0  0  0
 41 92  1  0  0  0  0
 42 43  1  0  0  0  0
 42 95  1  0  0  0  0
 43 45  1  0  0  0  0
 43 96  1  0  0  0  0
 44 45  1  0  0  0  0
 44 46  1  1  0  0  0
 44 97  1  0  0  0  0
 45 98  1  0  0  0  0
M  END
> <PUBCHEM_COMPOUND_CID>
158891

> <PUBCHEM_COMPOUND_CANONICALIZED>
1

> <PUBCHEM_CACTVS_COMPLEXITY>
1280

> <PUBCHEM_CACTVS_HBOND_ACCEPTOR>
10

> <PUBCHEM_CACTVS_HBOND_DONOR>
6

> <PUBCHEM_CACTVS_ROTATABLE_BOND>
5

> <PUBCHEM_CACTVS_SUBSKEYS>
AAADcfB8PAAAAAAAAAAAAAAAAAAAAAAAAAA0YMGCAAAAAADAAAAAGgAACAAADxSwgAMCCAAABgCIAiDSCAIAAAAgAAAACAFAAAgREBYAAQQiQAAFoAAPAAPK7PzPgAAAAAAAAADAAAYAADAAAAAAAAAAAA==

> <PUBCHEM_IUPAC_OPENEYE_NAME>
(2S,3S,4S,5R,6R)-6-[[(3S,4R,4aR,6aR,6bS,8aS,12aS,14aR,14bR)-8a-carboxy-4-(hydroxymethyl)-4,6a,6b,11,11,14b-hexamethyl-1,2,3,4a,5,6,7,8,9,10,12,12a,14,14a-tetradecahydropicen-3-yl]oxy]-3,4,5-trihydroxy-tetrahydropyran-2-carboxylic acid

> <PUBCHEM_IUPAC_CAS_NAME>
(2S,3S,4S,5R,6R)-6-[[(3S,4R,4aR,6aR,6bS,8aS,12aS,14aR,14bR)-8a-carboxy-4-(hydroxymethyl)-4,6a,6b,11,11,14b-hexamethyl-1,2,3,4a,5,6,7,8,9,10,12,12a,14,14a-tetradecahydropicen-3-yl]oxy]-3,4,5-trihydroxy-2-oxanecarboxylic acid

> <PUBCHEM_IUPAC_NAME_MARKUP>
(2<I>S</I>,3<I>S</I>,4<I>S</I>,5<I>R</I>,6<I>R</I>)-6-[[(3<I>S</I>,4<I>R</I>,4<I>a</I><I>R</I>,6<I>a</I><I>R</I>,6<I>b</I><I>S</I>,8<I>a</I><I>S</I>,12<I>a</I><I>S</I>,14<I>a</I><I>R</I>,14<I>b</I><I>R</I>)-8<I>a</I>-carboxy-4-(hydroxymethyl)-4,6<I>a</I>,6<I>b</I>,11,11,14<I>b</I>-hexamethyl-1,2,3,4<I>a</I>,5,6,7,8,9,10,12,12<I>a</I>,14,14<I>a</I>-tetradecahydropicen-3-yl]oxy]-3,4,5-trihydroxyoxane-2-carboxylic acid

> <PUBCHEM_IUPAC_NAME>
(2S,3S,4S,5R,6R)-6-[[(3S,4R,4aR,6aR,6bS,8aS,12aS,14aR,14bR)-8a-carboxy-4-(hydroxymethyl)-4,6a,6b,11,11,14b-hexamethyl-1,2,3,4a,5,6,7,8,9,10,12,12a,14,14a-tetradecahydropicen-3-yl]oxy]-3,4,5-trihydroxyoxane-2-carboxylic acid

> <PUBCHEM_IUPAC_SYSTEMATIC_NAME>
(2S,3S,4S,5R,6R)-6-[[(3S,4R,4aR,6aR,6bS,8aS,12aS,14aR,14bR)-8a-carboxy-4-(hydroxymethyl)-4,6a,6b,11,11,14b-hexamethyl-1,2,3,4a,5,6,7,8,9,10,12,12a,14,14a-tetradecahydropicen-3-yl]oxy]-3,4,5-tris(oxidanyl)oxane-2-carboxylic acid

> <PUBCHEM_IUPAC_TRADITIONAL_NAME>
(2S,3S,4S,5R,6R)-6-[[(3S,4R,4aR,6aR,6bS,8aS,12aS,14aR,14bR)-8a-carboxy-4,6a,6b,11,11,14b-hexamethyl-4-methylol-1,2,3,4a,5,6,7,8,9,10,12,12a,14,14a-tetradecahydropicen-3-yl]oxy]-3,4,5-trihydroxy-tetrahydropyran-2-carboxylic acid

> <PUBCHEM_IUPAC_INCHI>
InChI=1S/C36H56O10/c1-31(2)13-15-36(30(43)44)16-14-34(5)19(20(36)17-31)7-8-22-32(3)11-10-23(33(4,18-37)21(32)9-12-35(22,34)6)45-29-26(40)24(38)25(39)27(46-29)28(41)42/h7,20-27,29,37-40H,8-18H2,1-6H3,(H,41,42)(H,43,44)/t20-,21+,22+,23-,24-,25-,26+,27-,29+,32-,33-,34+,35+,36-/m0/s1

> <PUBCHEM_IUPAC_INCHIKEY>
DYFUVQSGLMQLRX-ALBXZGMBSA-N

> <PUBCHEM_XLOGP3_AA>
4.9

> <PUBCHEM_EXACT_MASS>
648.38734798

> <PUBCHEM_MOLECULAR_FORMULA>
C36H56O10

> <PUBCHEM_MOLECULAR_WEIGHT>
648.8

> <PUBCHEM_OPENEYE_CAN_SMILES>
CC1(CCC2(CCC3(C(=CCC4C3(CCC5C4(CCC(C5(C)CO)OC6C(C(C(C(O6)C(=O)O)O)O)O)C)C)C2C1)C)C(=O)O)C

> <PUBCHEM_OPENEYE_ISO_SMILES>
C[C@]12CC[C@@H]([C@@]([C@@H]1CC[C@@]3([C@@H]2CC=C4[C@]3(CC[C@@]5([C@H]4CC(CC5)(C)C)C(=O)O)C)C)(C)CO)O[C@H]6[C@@H]([C@H]([C@@H]([C@H](O6)C(=O)O)O)O)O

> <PUBCHEM_CACTVS_TPSA>
174

> <PUBCHEM_MONOISOTOPIC_WEIGHT>
648.38734798

> <PUBCHEM_TOTAL_CHARGE>
0

> <PUBCHEM_HEAVY_ATOM_COUNT>
46

> <PUBCHEM_ATOM_DEF_STEREO_COUNT>
14

> <PUBCHEM_ATOM_UDEF_STEREO_COUNT>
0

> <PUBCHEM_BOND_DEF_STEREO_COUNT>
0

> <PUBCHEM_BOND_UDEF_STEREO_COUNT>
0

> <PUBCHEM_ISOTOPIC_ATOM_COUNT>
0

> <PUBCHEM_COMPONENT_COUNT>
1

> <PUBCHEM_CACTVS_TAUTO_COUNT>
1

> <PUBCHEM_COORDINATE_TYPE>
1
5
255

> <PUBCHEM_BONDANNOTATIONS>
25  1  5
41  1  5
11  26  5
12  47  6
13  28  5
14  31  6
15  48  6
17  36  5
22  57  5
24  38  5
44  46  5
42  6  6
43  7  5
45  8  6

$$$$
