10260627
  -OEChem-01102223352D

161168  0     1  0  0  0  0  0999 V2000
   11.4494    4.4173    0.0000 O   0  0  0  0  0  0  0  0  0  0  0  0
    8.7741   -3.3349    0.0000 O   0  0  0  0  0  0  0  0  0  0  0  0
   10.5495    6.0196    0.0000 O   0  0  0  0  0  0  0  0  0  0  0  0
    8.7340    7.0584    0.0000 O   0  0  0  0  0  0  0  0  0  0  0  0
   11.1733    5.7180    0.0000 O   0  0  0  0  0  0  0  0  0  0  0  0
   11.2182   -2.6432    0.0000 O   0  0  0  0  0  0  0  0  0  0  0  0
    7.0420   -3.3349    0.0000 O   0  0  0  0  0  0  0  0  0  0  0  0
    8.7741   -5.3349    0.0000 O   0  0  0  0  0  0  0  0  0  0  0  0
    9.6834    7.5196    0.0000 O   0  0  0  0  0  0  0  0  0  0  0  0
    7.0020    7.0451    0.0000 O   0  0  0  0  0  0  0  0  0  0  0  0
    7.0420   -6.3349    0.0000 O   0  0  0  0  0  0  0  0  0  0  0  0
    5.3100   -5.3349    0.0000 O   0  0  0  0  0  0  0  0  0  0  0  0
    7.9080   -6.8349    0.0000 O   0  0  0  0  0  0  0  0  0  0  0  0
    5.3100   -2.3349    0.0000 O   0  0  0  0  0  0  0  0  0  0  0  0
    4.4440   -3.8349    0.0000 O   0  0  0  0  0  0  0  0  0  0  0  0
    5.3100   -7.0670    0.0000 O   0  0  0  0  0  0  0  0  0  0  0  0
   10.5061   -6.3349    0.0000 O   0  0  0  0  0  0  0  0  0  0  0  0
   10.5061   -8.3349    0.0000 O   0  0  0  0  0  0  0  0  0  0  0  0
    3.3100   -5.3349    0.0000 O   0  0  0  0  0  0  0  0  0  0  0  0
    8.7741   -9.3349    0.0000 O   0  0  0  0  0  0  0  0  0  0  0  0
    2.3100   -7.0670    0.0000 O   0  0  0  0  0  0  0  0  0  0  0  0
    3.3101   -8.7990    0.0000 O   0  0  0  0  0  0  0  0  0  0  0  0
    4.8100   -9.6650    0.0000 O   0  0  0  0  0  0  0  0  0  0  0  0
    9.6751    1.3653    0.0000 C   0  0  2  0  0  0  0  0  0  0  0  0
    8.8110    0.8620    0.0000 C   0  0  1  0  0  0  0  0  0  0  0  0
    8.7990   -0.1796    0.0000 C   0  0  2  0  0  0  0  0  0  0  0  0
    9.6713    2.3653    0.0000 C   0  0  1  0  0  0  0  0  0  0  0  0
    9.6991   -0.7039    0.0000 C   0  0  1  0  0  0  0  0  0  0  0  0
   10.5871    0.8620    0.0000 C   0  0  0  0  0  0  0  0  0  0  0  0
    8.8033    2.8620    0.0000 C   0  0  0  0  0  0  0  0  0  0  0  0
    8.7833    3.9034    0.0000 C   0  0  1  0  0  0  0  0  0  0  0  0
    9.6793    4.4346    0.0000 C   0  0  1  0  0  0  0  0  0  0  0  0
   10.5991   -0.1796    0.0000 C   0  0  0  0  0  0  0  0  0  0  0  0
    9.7116   -1.7888    0.0000 C   0  0  2  0  0  0  0  0  0  0  0  0
   10.5793    2.8757    0.0000 C   0  0  0  0  0  0  0  0  0  0  0  0
    7.9431    1.3586    0.0000 C   0  0  0  0  0  0  0  0  0  0  0  0
    7.8491   -0.7039    0.0000 C   0  0  0  0  0  0  0  0  0  0  0  0
   10.5833    3.9173    0.0000 C   0  0  1  0  0  0  0  0  0  0  0  0
   10.6593    1.5428    0.0000 C   0  0  0  0  0  0  0  0  0  0  0  0
    8.7741   -2.3349    0.0000 C   0  0  2  0  0  0  0  0  0  0  0  0
    7.9392    2.3586    0.0000 C   0  0  0  0  0  0  0  0  0  0  0  0
    7.9349    0.3238    0.0000 C   0  0  0  0  0  0  0  0  0  0  0  0
    7.8293    4.4204    0.0000 C   0  0  0  0  0  0  0  0  0  0  0  0
    7.8365   -1.7888    0.0000 C   0  0  0  0  0  0  0  0  0  0  0  0
   10.6568    2.1955    0.0000 C   0  0  0  0  0  0  0  0  0  0  0  0
    9.6834    5.5196    0.0000 C   0  0  2  0  0  0  0  0  0  0  0  0
    7.8084    5.5052    0.0000 C   0  0  0  0  0  0  0  0  0  0  0  0
    8.7417    6.0585    0.0000 C   0  0  1  0  0  0  0  0  0  0  0  0
   10.5394    4.9446    0.0000 C   0  0  0  0  0  0  0  0  0  0  0  0
   10.7116   -1.7811    0.0000 C   0  0  0  0  0  0  0  0  0  0  0  0
   10.2183   -2.6509    0.0000 C   0  0  0  0  0  0  0  0  0  0  0  0
    6.8085    5.4897    0.0000 C   0  0  0  0  0  0  0  0  0  0  0  0
    7.2951    6.3634    0.0000 C   0  0  0  0  0  0  0  0  0  0  0  0
    7.9080   -3.8349    0.0000 C   0  0  2  0  0  0  0  0  0  0  0  0
   10.5495    7.0196    0.0000 C   0  0  0  0  0  0  0  0  0  0  0  0
    7.9080   -4.8349    0.0000 C   0  0  1  0  0  0  0  0  0  0  0  0
    7.8642    7.5518    0.0000 C   0  0  0  0  0  0  0  0  0  0  0  0
    7.0420   -5.3349    0.0000 C   0  0  2  0  0  0  0  0  0  0  0  0
    6.1760   -3.8349    0.0000 C   0  0  1  0  0  0  0  0  0  0  0  0
    6.1760   -4.8349    0.0000 C   0  0  1  0  0  0  0  0  0  0  0  0
   11.4155    7.5196    0.0000 C   0  0  0  0  0  0  0  0  0  0  0  0
    7.8564    8.5517    0.0000 C   0  0  0  0  0  0  0  0  0  0  0  0
    8.7741   -6.3349    0.0000 C   0  0  2  0  0  0  0  0  0  0  0  0
    5.3100   -3.3349    0.0000 C   0  0  0  0  0  0  0  0  0  0  0  0
    8.7186    9.0584    0.0000 C   0  0  0  0  0  0  0  0  0  0  0  0
    6.9866    9.0450    0.0000 C   0  0  0  0  0  0  0  0  0  0  0  0
    9.6401   -6.8349    0.0000 C   0  0  1  0  0  0  0  0  0  0  0  0
    4.8101   -6.2010    0.0000 C   0  0  2  0  0  0  0  0  0  0  0  0
    9.6401   -7.8349    0.0000 C   0  0  2  0  0  0  0  0  0  0  0  0
    6.1245    8.5384    0.0000 C   0  0  0  0  0  0  0  0  0  0  0  0
    3.8100   -6.2010    0.0000 C   0  0  1  0  0  0  0  0  0  0  0  0
    7.9080   -7.8349    0.0000 C   0  0  0  0  0  0  0  0  0  0  0  0
    8.7741   -8.3349    0.0000 C   0  0  1  0  0  0  0  0  0  0  0  0
    3.3100   -7.0670    0.0000 C   0  0  2  0  0  0  0  0  0  0  0  0
    4.8100   -7.9330    0.0000 C   0  0  1  0  0  0  0  0  0  0  0  0
    3.8101   -7.9330    0.0000 C   0  0  1  0  0  0  0  0  0  0  0  0
    5.3100   -8.7990    0.0000 C   0  0  0  0  0  0  0  0  0  0  0  0
    9.5455    0.4342    0.0000 H   0  0  0  0  0  0  0  0  0  0  0  0
   10.4384   -1.1232    0.0000 H   0  0  0  0  0  0  0  0  0  0  0  0
   11.1991    0.7630    0.0000 H   0  0  0  0  0  0  0  0  0  0  0  0
   10.7894    1.4481    0.0000 H   0  0  0  0  0  0  0  0  0  0  0  0
    8.0572    3.4615    0.0000 H   0  0  0  0  0  0  0  0  0  0  0  0
   10.8149   -0.7608    0.0000 H   0  0  0  0  0  0  0  0  0  0  0  0
   11.2087   -0.0664    0.0000 H   0  0  0  0  0  0  0  0  0  0  0  0
   10.7861    2.2912    0.0000 H   0  0  0  0  0  0  0  0  0  0  0  0
   11.1906    2.9794    0.0000 H   0  0  0  0  0  0  0  0  0  0  0  0
    7.3321    1.4640    0.0000 H   0  0  0  0  0  0  0  0  0  0  0  0
    7.7333    0.7752    0.0000 H   0  0  0  0  0  0  0  0  0  0  0  0
    7.6468   -0.1178    0.0000 H   0  0  0  0  0  0  0  0  0  0  0  0
    7.2370   -0.8029    0.0000 H   0  0  0  0  0  0  0  0  0  0  0  0
   11.1197    3.6063    0.0000 H   0  0  0  0  0  0  0  0  0  0  0  0
   10.7693    0.9326    0.0000 H   0  0  0  0  0  0  0  0  0  0  0  0
   11.2694    1.6528    0.0000 H   0  0  0  0  0  0  0  0  0  0  0  0
   10.5493    2.1529    0.0000 H   0  0  0  0  0  0  0  0  0  0  0  0
    9.3116   -2.6439    0.0000 H   0  0  0  0  0  0  0  0  0  0  0  0
    7.4011    2.6666    0.0000 H   0  0  0  0  0  0  0  0  0  0  0  0
    8.2470    0.8595    0.0000 H   0  0  0  0  0  0  0  0  0  0  0  0
    7.3992    0.6358    0.0000 H   0  0  0  0  0  0  0  0  0  0  0  0
    7.6228   -0.2120    0.0000 H   0  0  0  0  0  0  0  0  0  0  0  0
    7.2166    4.5147    0.0000 H   0  0  0  0  0  0  0  0  0  0  0  0
    7.6316    3.8328    0.0000 H   0  0  0  0  0  0  0  0  0  0  0  0
    7.2270   -1.6756    0.0000 H   0  0  0  0  0  0  0  0  0  0  0  0
    7.6208   -2.3700    0.0000 H   0  0  0  0  0  0  0  0  0  0  0  0
   10.5514    1.5845    0.0000 H   0  0  0  0  0  0  0  0  0  0  0  0
   11.2677    2.0902    0.0000 H   0  0  0  0  0  0  0  0  0  0  0  0
   10.7621    2.8065    0.0000 H   0  0  0  0  0  0  0  0  0  0  0  0
    9.6822    6.1396    0.0000 H   0  0  0  0  0  0  0  0  0  0  0  0
    8.2018    6.3633    0.0000 H   0  0  0  0  0  0  0  0  0  0  0  0
   10.6185    4.3297    0.0000 H   0  0  0  0  0  0  0  0  0  0  0  0
   10.1354    5.4149    0.0000 H   0  0  0  0  0  0  0  0  0  0  0  0
   11.2925   -1.5645    0.0000 H   0  0  0  0  0  0  0  0  0  0  0  0
   10.5992   -1.1713    0.0000 H   0  0  0  0  0  0  0  0  0  0  0  0
    9.6837   -2.9651    0.0000 H   0  0  0  0  0  0  0  0  0  0  0  0
   10.5324   -3.1855    0.0000 H   0  0  0  0  0  0  0  0  0  0  0  0
   10.7528   -2.3368    0.0000 H   0  0  0  0  0  0  0  0  0  0  0  0
   11.9863    4.1073    0.0000 H   0  0  0  0  0  0  0  0  0  0  0  0
    6.7990    6.1097    0.0000 H   0  0  0  0  0  0  0  0  0  0  0  0
    6.1886    5.4802    0.0000 H   0  0  0  0  0  0  0  0  0  0  0  0
    6.8181    4.8698    0.0000 H   0  0  0  0  0  0  0  0  0  0  0  0
    7.8272    6.6816    0.0000 H   0  0  0  0  0  0  0  0  0  0  0  0
    6.9769    6.8955    0.0000 H   0  0  0  0  0  0  0  0  0  0  0  0
    6.7630    6.0451    0.0000 H   0  0  0  0  0  0  0  0  0  0  0  0
   11.7851    5.6174    0.0000 H   0  0  0  0  0  0  0  0  0  0  0  0
    7.9080   -3.2149    0.0000 H   0  0  0  0  0  0  0  0  0  0  0  0
   11.8382   -2.6384    0.0000 H   0  0  0  0  0  0  0  0  0  0  0  0
    7.9080   -5.4549    0.0000 H   0  0  0  0  0  0  0  0  0  0  0  0
    6.5051   -5.6449    0.0000 H   0  0  0  0  0  0  0  0  0  0  0  0
    6.1760   -3.2149    0.0000 H   0  0  0  0  0  0  0  0  0  0  0  0
    5.6391   -4.5249    0.0000 H   0  0  0  0  0  0  0  0  0  0  0  0
   11.7255    6.9827    0.0000 H   0  0  0  0  0  0  0  0  0  0  0  0
   11.9524    7.8296    0.0000 H   0  0  0  0  0  0  0  0  0  0  0  0
   11.1055    8.0566    0.0000 H   0  0  0  0  0  0  0  0  0  0  0  0
    9.3110   -6.0249    0.0000 H   0  0  0  0  0  0  0  0  0  0  0  0
    6.7320   -6.8718    0.0000 H   0  0  0  0  0  0  0  0  0  0  0  0
    9.0327    8.5239    0.0000 H   0  0  0  0  0  0  0  0  0  0  0  0
    9.2531    9.3725    0.0000 H   0  0  0  0  0  0  0  0  0  0  0  0
    8.4045    9.5929    0.0000 H   0  0  0  0  0  0  0  0  0  0  0  0
    6.9818    9.6650    0.0000 H   0  0  0  0  0  0  0  0  0  0  0  0
   10.1770   -7.1449    0.0000 H   0  0  0  0  0  0  0  0  0  0  0  0
    4.5000   -5.6640    0.0000 H   0  0  0  0  0  0  0  0  0  0  0  0
    9.6401   -8.4549    0.0000 H   0  0  0  0  0  0  0  0  0  0  0  0
    5.8103    9.0729    0.0000 H   0  0  0  0  0  0  0  0  0  0  0  0
    5.5899    8.2242    0.0000 H   0  0  0  0  0  0  0  0  0  0  0  0
    6.4386    8.0038    0.0000 H   0  0  0  0  0  0  0  0  0  0  0  0
    4.7730   -2.0249    0.0000 H   0  0  0  0  0  0  0  0  0  0  0  0
    3.1900   -6.2010    0.0000 H   0  0  0  0  0  0  0  0  0  0  0  0
    7.2975   -7.7272    0.0000 H   0  0  0  0  0  0  0  0  0  0  0  0
    7.6960   -8.4175    0.0000 H   0  0  0  0  0  0  0  0  0  0  0  0
    8.2371   -8.6449    0.0000 H   0  0  0  0  0  0  0  0  0  0  0  0
   11.0431   -6.6449    0.0000 H   0  0  0  0  0  0  0  0  0  0  0  0
    3.0000   -7.6039    0.0000 H   0  0  0  0  0  0  0  0  0  0  0  0
    5.4300   -7.9330    0.0000 H   0  0  0  0  0  0  0  0  0  0  0  0
    4.1201   -8.4700    0.0000 H   0  0  0  0  0  0  0  0  0  0  0  0
   10.5061   -8.9549    0.0000 H   0  0  0  0  0  0  0  0  0  0  0  0
    2.6900   -5.3349    0.0000 H   0  0  0  0  0  0  0  0  0  0  0  0
    9.3110   -9.6449    0.0000 H   0  0  0  0  0  0  0  0  0  0  0  0
    5.7849   -9.1975    0.0000 H   0  0  0  0  0  0  0  0  0  0  0  0
    5.7849   -8.4005    0.0000 H   0  0  0  0  0  0  0  0  0  0  0  0
    2.0000   -7.6039    0.0000 H   0  0  0  0  0  0  0  0  0  0  0  0
    2.6900   -8.7990    0.0000 H   0  0  0  0  0  0  0  0  0  0  0  0
    4.1900   -9.6650    0.0000 H   0  0  0  0  0  0  0  0  0  0  0  0
 38  1  1  6  0  0  0
  1116  1  0  0  0  0
 40  2  1  1  0  0  0
 54  2  1  1  0  0  0
 46  3  1  6  0  0  0
  3 55  1  0  0  0  0
 48  4  1  1  0  0  0
  4 57  1  0  0  0  0
  5 49  1  0  0  0  0
  5123  1  0  0  0  0
  6 50  1  0  0  0  0
  6125  1  0  0  0  0
  7 54  1  0  0  0  0
  7 59  1  0  0  0  0
 56  8  1  6  0  0  0
 63  8  1  1  0  0  0
  9 55  2  0  0  0  0
 10 57  2  0  0  0  0
 58 11  1  1  0  0  0
 11134  1  0  0  0  0
 60 12  1  6  0  0  0
 68 12  1  6  0  0  0
 13 63  1  0  0  0  0
 13 72  1  0  0  0  0
 14 64  1  0  0  0  0
 14145  1  0  0  0  0
 15 64  2  0  0  0  0
 16 68  1  0  0  0  0
 16 75  1  0  0  0  0
 67 17  1  6  0  0  0
 17150  1  0  0  0  0
 69 18  1  1  0  0  0
 18154  1  0  0  0  0
 71 19  1  1  0  0  0
 19155  1  0  0  0  0
 73 20  1  6  0  0  0
 20156  1  0  0  0  0
 74 21  1  6  0  0  0
 21159  1  0  0  0  0
 76 22  1  1  0  0  0
 22160  1  0  0  0  0
 23 77  1  0  0  0  0
 23161  1  0  0  0  0
 24 25  1  0  0  0  0
 24 27  1  0  0  0  0
 24 29  1  0  0  0  0
 24 39  1  1  0  0  0
 25 26  1  0  0  0  0
 25 36  1  0  0  0  0
 25 78  1  6  0  0  0
 26 28  1  0  0  0  0
 26 37  1  0  0  0  0
 26 42  1  1  0  0  0
 27 30  1  0  0  0  0
 27 35  1  0  0  0  0
 27 45  1  6  0  0  0
 28 33  1  0  0  0  0
 28 34  1  0  0  0  0
 28 79  1  6  0  0  0
 29 33  1  0  0  0  0
 29 80  1  0  0  0  0
 29 81  1  0  0  0  0
 30 31  1  0  0  0  0
 30 41  2  0  0  0  0
 31 32  1  0  0  0  0
 31 43  1  0  0  0  0
 31 82  1  1  0  0  0
 32 38  1  0  0  0  0
 32 46  1  0  0  0  0
 32 49  1  1  0  0  0
 33 83  1  0  0  0  0
 33 84  1  0  0  0  0
 34 40  1  0  0  0  0
 34 50  1  0  0  0  0
 34 51  1  6  0  0  0
 35 38  1  0  0  0  0
 35 85  1  0  0  0  0
 35 86  1  0  0  0  0
 36 41  1  0  0  0  0
 36 87  1  0  0  0  0
 36 88  1  0  0  0  0
 37 44  1  0  0  0  0
 37 89  1  0  0  0  0
 37 90  1  0  0  0  0
 38 91  1  0  0  0  0
 39 92  1  0  0  0  0
 39 93  1  0  0  0  0
 39 94  1  0  0  0  0
 40 44  1  0  0  0  0
 40 95  1  0  0  0  0
 41 96  1  0  0  0  0
 42 97  1  0  0  0  0
 42 98  1  0  0  0  0
 42 99  1  0  0  0  0
 43 47  1  0  0  0  0
 43100  1  0  0  0  0
 43101  1  0  0  0  0
 44102  1  0  0  0  0
 44103  1  0  0  0  0
 45104  1  0  0  0  0
 45105  1  0  0  0  0
 45106  1  0  0  0  0
 46 48  1  0  0  0  0
 46107  1  0  0  0  0
 47 48  1  0  0  0  0
 47 52  1  0  0  0  0
 47 53  1  0  0  0  0
 48108  1  0  0  0  0
 49109  1  0  0  0  0
 49110  1  0  0  0  0
 50111  1  0  0  0  0
 50112  1  0  0  0  0
 51113  1  0  0  0  0
 51114  1  0  0  0  0
 51115  1  0  0  0  0
 52117  1  0  0  0  0
 52118  1  0  0  0  0
 52119  1  0  0  0  0
 53120  1  0  0  0  0
 53121  1  0  0  0  0
 53122  1  0  0  0  0
 54 56  1  0  0  0  0
 54124  1  0  0  0  0
 55 61  1  0  0  0  0
 56 58  1  0  0  0  0
 56126  1  0  0  0  0
 57 62  1  0  0  0  0
 58 60  1  0  0  0  0
 58127  1  0  0  0  0
 59 60  1  0  0  0  0
 59 64  1  1  0  0  0
 59128  1  0  0  0  0
 60129  1  0  0  0  0
 61130  1  0  0  0  0
 61131  1  0  0  0  0
 61132  1  0  0  0  0
 62 65  1  0  0  0  0
 62 66  2  0  0  0  0
 63 67  1  0  0  0  0
 63133  1  0  0  0  0
 65135  1  0  0  0  0
 65136  1  0  0  0  0
 65137  1  0  0  0  0
 66 70  1  0  0  0  0
 66138  1  0  0  0  0
 67 69  1  0  0  0  0
 67139  1  0  0  0  0
 68 71  1  0  0  0  0
 68140  1  0  0  0  0
 69 73  1  0  0  0  0
 69141  1  0  0  0  0
 70142  1  0  0  0  0
 70143  1  0  0  0  0
 70144  1  0  0  0  0
 71 74  1  0  0  0  0
 71146  1  0  0  0  0
 72 73  1  0  0  0  0
 72147  1  0  0  0  0
 72148  1  0  0  0  0
 73149  1  0  0  0  0
 74 76  1  0  0  0  0
 74151  1  0  0  0  0
 75 76  1  0  0  0  0
 75 77  1  6  0  0  0
 75152  1  0  0  0  0
 76153  1  0  0  0  0
 77157  1  0  0  0  0
 77158  1  0  0  0  0
M  END
> <PUBCHEM_COMPOUND_CID>
10260627

> <PUBCHEM_COMPOUND_CANONICALIZED>
1

> <PUBCHEM_CACTVS_COMPLEXITY>
2240

> <PUBCHEM_CACTVS_HBOND_ACCEPTOR>
23

> <PUBCHEM_CACTVS_HBOND_DONOR>
12

> <PUBCHEM_CACTVS_ROTATABLE_BOND>
15

> <PUBCHEM_CACTVS_SUBSKEYS>
AAADcfB8PgAAAAAAAAAAAAAAAAAAAAAAAAA0aNGCAAAAAADAAAAAGgAACAAADxSwgAMCCAAABgCIAiDSCAIAAAAgAAAACAFAAEgRFBYAIQQiUAAFoAAPIYPK7PxPgAAAAAAAAADAAAYAADCAAAAAAAAAAA==

> <PUBCHEM_IUPAC_OPENEYE_NAME>
(2S,3S,4S,5R,6R)-6-[[(3S,4S,4aR,6aR,6bS,8R,8aR,9R,10R,12aS,14aR,14bR)-9-acetoxy-8-hydroxy-4,8a-bis(hydroxymethyl)-4,6a,6b,11,11,14b-hexamethyl-10-[(Z)-2-methylbut-2-enoyl]oxy-1,2,3,4a,5,6,7,8,9,10,12,12a,14,14a-tetradecahydropicen-3-yl]oxy]-4-hydroxy-3-[(2S,3R,4S,5S,6R)-3,4,5-trihydroxy-6-(hydroxymethyl)tetrahydropyran-2-yl]oxy-5-[(2S,3R,4S,5R)-3,4,5-trihydroxytetrahydropyran-2-yl]oxy-tetrahydropyran-2-carboxylic acid

> <PUBCHEM_IUPAC_CAS_NAME>
(2S,3S,4S,5R,6R)-6-[[(3S,4S,4aR,6aR,6bS,8R,8aR,9R,10R,12aS,14aR,14bR)-9-acetyloxy-8-hydroxy-4,8a-bis(hydroxymethyl)-4,6a,6b,11,11,14b-hexamethyl-10-[(Z)-2-methyl-1-oxobut-2-enoxy]-1,2,3,4a,5,6,7,8,9,10,12,12a,14,14a-tetradecahydropicen-3-yl]oxy]-4-hydroxy-3-[[(2S,3R,4S,5S,6R)-3,4,5-trihydroxy-6-(hydroxymethyl)-2-oxanyl]oxy]-5-[[(2S,3R,4S,5R)-3,4,5-trihydroxy-2-oxanyl]oxy]-2-oxanecarboxylic acid

> <PUBCHEM_IUPAC_NAME_MARKUP>
(2<I>S</I>,3<I>S</I>,4<I>S</I>,5<I>R</I>,6<I>R</I>)-6-[[(3<I>S</I>,4<I>S</I>,4<I>a</I><I>R</I>,6<I>a</I><I>R</I>,6<I>b</I><I>S</I>,8<I>R</I>,8<I>a</I><I>R</I>,9<I>R</I>,10<I>R</I>,12<I>a</I><I>S</I>,14<I>a</I><I>R</I>,14<I>b</I><I>R</I>)-9-acetyloxy-8-hydroxy-4,8<I>a</I>-bis(hydroxymethyl)-4,6<I>a</I>,6<I>b</I>,11,11,14<I>b</I>-hexamethyl-10-[(<I>Z</I>)-2-methylbut-2-enoyl]oxy-1,2,3,4<I>a</I>,5,6,7,8,9,10,12,12<I>a</I>,14,14<I>a</I>-tetradecahydropicen-3-yl]oxy]-4-hydroxy-3-[(2<I>S</I>,3<I>R</I>,4<I>S</I>,5<I>S</I>,6<I>R</I>)-3,4,5-trihydroxy-6-(hydroxymethyl)oxan-2-yl]oxy-5-[(2<I>S</I>,3<I>R</I>,4<I>S</I>,5<I>R</I>)-3,4,5-trihydroxyoxan-2-yl]oxyoxane-2-carboxylic acid

> <PUBCHEM_IUPAC_NAME>
(2S,3S,4S,5R,6R)-6-[[(3S,4S,4aR,6aR,6bS,8R,8aR,9R,10R,12aS,14aR,14bR)-9-acetyloxy-8-hydroxy-4,8a-bis(hydroxymethyl)-4,6a,6b,11,11,14b-hexamethyl-10-[(Z)-2-methylbut-2-enoyl]oxy-1,2,3,4a,5,6,7,8,9,10,12,12a,14,14a-tetradecahydropicen-3-yl]oxy]-4-hydroxy-3-[(2S,3R,4S,5S,6R)-3,4,5-trihydroxy-6-(hydroxymethyl)oxan-2-yl]oxy-5-[(2S,3R,4S,5R)-3,4,5-trihydroxyoxan-2-yl]oxyoxane-2-carboxylic acid

> <PUBCHEM_IUPAC_SYSTEMATIC_NAME>
(2S,3S,4S,5R,6R)-6-[[(3S,4S,4aR,6aR,6bS,8R,8aR,9R,10R,12aS,14aR,14bR)-9-acetyloxy-4,8a-bis(hydroxymethyl)-4,6a,6b,11,11,14b-hexamethyl-10-[(Z)-2-methylbut-2-enoyl]oxy-8-oxidanyl-1,2,3,4a,5,6,7,8,9,10,12,12a,14,14a-tetradecahydropicen-3-yl]oxy]-3-[(2S,3R,4S,5S,6R)-6-(hydroxymethyl)-3,4,5-tris(oxidanyl)oxan-2-yl]oxy-4-oxidanyl-5-[(2S,3R,4S,5R)-3,4,5-tris(oxidanyl)oxan-2-yl]oxy-oxane-2-carboxylic acid

> <PUBCHEM_IUPAC_TRADITIONAL_NAME>
(2S,3S,4S,5R,6R)-6-[[(3S,4S,4aR,6aR,6bS,8R,8aR,9R,10R,12aS,14aR,14bR)-9-acetoxy-8-hydroxy-4,6a,6b,11,11,14b-hexamethyl-10-[(Z)-2-methylbut-2-enoyl]oxy-4,8a-dimethylol-1,2,3,4a,5,6,7,8,9,10,12,12a,14,14a-tetradecahydropicen-3-yl]oxy]-4-hydroxy-3-[(2S,3R,4S,5S,6R)-3,4,5-trihydroxy-6-methylol-tetrahydropyran-2-yl]oxy-5-[(2S,3R,4S,5R)-3,4,5-trihydroxytetrahydropyran-2-yl]oxy-tetrahydropyran-2-carboxylic acid

> <PUBCHEM_IUPAC_INCHI>
InChI=1S/C54H84O23/c1-10-23(2)45(69)77-42-43(71-24(3)58)54(22-57)26(17-49(42,4)5)25-11-12-30-50(6)15-14-32(51(7,21-56)29(50)13-16-52(30,8)53(25,9)18-31(54)60)73-48-40(75-46-36(64)33(61)27(59)20-70-46)38(66)39(41(76-48)44(67)68)74-47-37(65)35(63)34(62)28(19-55)72-47/h10-11,26-43,46-48,55-57,59-66H,12-22H2,1-9H3,(H,67,68)/b23-10-/t26-,27+,28+,29+,30+,31+,32-,33-,34+,35-,36+,37+,38-,39-,40+,41-,42-,43-,46-,47-,48+,50-,51+,52+,53+,54-/m0/s1

> <PUBCHEM_IUPAC_INCHIKEY>
MLLNRQWNTKNRGQ-GJSMMZDWSA-N

> <PUBCHEM_XLOGP3_AA>
0.7

> <PUBCHEM_EXACT_MASS>
1100.54033892

> <PUBCHEM_MOLECULAR_FORMULA>
C54H84O23

> <PUBCHEM_MOLECULAR_WEIGHT>
1101.2

> <PUBCHEM_OPENEYE_CAN_SMILES>
CC=C(C)C(=O)OC1C(C2(C(CC1(C)C)C3=CCC4C5(CCC(C(C5CCC4(C3(CC2O)C)C)(C)CO)OC6C(C(C(C(O6)C(=O)O)OC7C(C(C(C(O7)CO)O)O)O)O)OC8C(C(C(CO8)O)O)O)C)CO)OC(=O)C

> <PUBCHEM_OPENEYE_ISO_SMILES>
C/C=C(/C)\C(=O)O[C@H]1[C@@H]([C@@]2([C@@H](C[C@@]3(C(=CC[C@H]4[C@]3(CC[C@@H]5[C@@]4(CC[C@@H]([C@]5(C)CO)O[C@H]6[C@@H]([C@H]([C@@H]([C@H](O6)C(=O)O)O[C@H]7[C@@H]([C@H]([C@@H]([C@H](O7)CO)O)O)O)O)O[C@H]8[C@@H]([C@H]([C@@H](CO8)O)O)O)C)C)[C@@H]2CC1(C)C)C)O)CO)OC(=O)C

> <PUBCHEM_CACTVS_TPSA>
368

> <PUBCHEM_MONOISOTOPIC_WEIGHT>
1100.54033892

> <PUBCHEM_TOTAL_CHARGE>
0

> <PUBCHEM_HEAVY_ATOM_COUNT>
77

> <PUBCHEM_ATOM_DEF_STEREO_COUNT>
26

> <PUBCHEM_ATOM_UDEF_STEREO_COUNT>
0

> <PUBCHEM_BOND_DEF_STEREO_COUNT>
1

> <PUBCHEM_BOND_UDEF_STEREO_COUNT>
0

> <PUBCHEM_ISOTOPIC_ATOM_COUNT>
0

> <PUBCHEM_COMPONENT_COUNT>
1

> <PUBCHEM_CACTVS_TAUTO_COUNT>
1

> <PUBCHEM_COORDINATE_TYPE>
1
5
255

> <PUBCHEM_BONDANNOTATIONS>
38  1  6
58  11  5
60  12  6
68  12  6
67  17  6
69  18  5
71  19  5
40  2  5
54  2  5
73  20  6
74  21  6
76  22  5
24  39  5
25  78  6
26  42  5
27  45  6
28  79  6
46  3  6
31  82  5
32  49  5
34  51  6
48  4  5
59  64  5
75  77  6
56  8  6
63  8  5

$$$$
