9918692
  -OEChem-01202212592D

127132  0     1  0  0  0  0  0999 V2000
    8.0949   -1.7358    0.0000 O   0  0  0  0  0  0  0  0  0  0  0  0
   10.9838    3.9976    0.0000 O   0  0  0  0  0  0  0  0  0  0  0  0
    6.0010   -3.1627    0.0000 O   0  0  0  0  0  0  0  0  0  0  0  0
   12.6322    4.5294    0.0000 O   0  0  0  0  0  0  0  0  0  0  0  0
    4.2690   -3.1627    0.0000 O   0  0  0  0  0  0  0  0  0  0  0  0
   11.5978    2.0942    0.0000 O   0  0  0  0  0  0  0  0  0  0  0  0
    6.0010   -5.1627    0.0000 O   0  0  0  0  0  0  0  0  0  0  0  0
   13.5532    1.6742    0.0000 O   0  0  0  0  0  0  0  0  0  0  0  0
    4.2690   -6.1627    0.0000 O   0  0  0  0  0  0  0  0  0  0  0  0
   14.8946    3.1577    0.0000 O   0  0  0  0  0  0  0  0  0  0  0  0
    2.5369   -5.1627    0.0000 O   0  0  0  0  0  0  0  0  0  0  0  0
   13.9736    6.0128    0.0000 O   0  0  0  0  0  0  0  0  0  0  0  0
    2.5369   -2.1627    0.0000 O   0  0  0  0  0  0  0  0  0  0  0  0
    7.1630    1.1157    0.0000 C   0  0  1  0  0  0  0  0  0  0  0  0
    6.4951    0.3714    0.0000 C   0  0  1  0  0  0  0  0  0  0  0  0
    8.1415    0.9095    0.0000 C   0  0  1  0  0  0  0  0  0  0  0  0
    8.8490    1.6740    0.0000 C   0  0  2  0  0  0  0  0  0  0  0  0
    6.8058   -0.5791    0.0000 C   0  0  1  0  0  0  0  0  0  0  0  0
    8.5330    2.6666    0.0000 C   0  0  1  0  0  0  0  0  0  0  0  0
    6.8241    2.1007    0.0000 C   0  0  0  0  0  0  0  0  0  0  0  0
    6.0010   -1.1627    0.0000 C   0  0  2  0  0  0  0  0  0  0  0  0
    8.4521   -0.0410    0.0000 C   0  0  0  0  0  0  0  0  0  0  0  0
    7.7843   -0.7853    0.0000 C   0  0  1  0  0  0  0  0  0  0  0  0
    5.5010    0.3671    0.0000 C   0  0  0  0  0  0  0  0  0  0  0  0
    7.5138    2.8814    0.0000 C   0  0  0  0  0  0  0  0  0  0  0  0
    9.2514    3.4797    0.0000 C   0  0  0  0  0  0  0  0  0  0  0  0
    5.1963   -0.5791    0.0000 C   0  0  0  0  0  0  0  0  0  0  0  0
    9.9052    1.4258    0.0000 C   0  0  0  0  0  0  0  0  0  0  0  0
    6.3140    1.6442    0.0000 C   0  0  0  0  0  0  0  0  0  0  0  0
    5.8781    1.1584    0.0000 C   0  0  0  0  0  0  0  0  0  0  0  0
    9.1523    0.7211    0.0000 C   0  0  0  0  0  0  0  0  0  0  0  0
   10.3131    3.2559    0.0000 C   0  0  2  0  0  0  0  0  0  0  0  0
    6.0010   -2.1627    0.0000 C   0  0  2  0  0  0  0  0  0  0  0  0
   10.6422    2.2220    0.0000 C   0  0  0  0  0  0  0  0  0  0  0  0
    9.4538    4.4590    0.0000 C   0  0  0  0  0  0  0  0  0  0  0  0
    8.5045    4.1446    0.0000 C   0  0  0  0  0  0  0  0  0  0  0  0
    7.0010   -2.1627    0.0000 C   0  0  0  0  0  0  0  0  0  0  0  0
    5.0010   -2.1627    0.0000 C   0  0  0  0  0  0  0  0  0  0  0  0
    7.5010   -3.0287    0.0000 C   0  0  0  0  0  0  0  0  0  0  0  0
   11.9615    3.7877    0.0000 C   0  0  2  0  0  0  0  0  0  0  0  0
    5.1350   -3.6627    0.0000 C   0  0  2  0  0  0  0  0  0  0  0  0
   12.2685    2.8360    0.0000 C   0  0  1  0  0  0  0  0  0  0  0  0
    5.1350   -4.6627    0.0000 C   0  0  1  0  0  0  0  0  0  0  0  0
    8.5010   -3.0287    0.0000 C   0  0  0  0  0  0  0  0  0  0  0  0
   13.2462    2.6260    0.0000 C   0  0  2  0  0  0  0  0  0  0  0  0
    4.2690   -5.1627    0.0000 C   0  0  2  0  0  0  0  0  0  0  0  0
   13.6099    4.3194    0.0000 C   0  0  1  0  0  0  0  0  0  0  0  0
    3.4030   -3.6627    0.0000 C   0  0  1  0  0  0  0  0  0  0  0  0
   13.9169    3.3677    0.0000 C   0  0  1  0  0  0  0  0  0  0  0  0
    3.4030   -4.6627    0.0000 C   0  0  1  0  0  0  0  0  0  0  0  0
    9.0010   -3.8947    0.0000 C   0  0  0  0  0  0  0  0  0  0  0  0
   14.2806    5.0611    0.0000 C   0  0  0  0  0  0  0  0  0  0  0  0
    2.5369   -3.1627    0.0000 C   0  0  0  0  0  0  0  0  0  0  0  0
   10.0010   -3.8947    0.0000 C   0  0  0  0  0  0  0  0  0  0  0  0
    8.5010   -4.7608    0.0000 C   0  0  0  0  0  0  0  0  0  0  0  0
    8.9718    0.7278    0.0000 H   0  0  0  0  0  0  0  0  0  0  0  0
    6.9828   -1.4104    0.0000 H   0  0  0  0  0  0  0  0  0  0  0  0
    8.2658    3.4735    0.0000 H   0  0  0  0  0  0  0  0  0  0  0  0
    6.4366    2.5847    0.0000 H   0  0  0  0  0  0  0  0  0  0  0  0
    6.2810    1.8017    0.0000 H   0  0  0  0  0  0  0  0  0  0  0  0
    5.2438   -1.5489    0.0000 H   0  0  0  0  0  0  0  0  0  0  0  0
    8.8347   -0.5289    0.0000 H   0  0  0  0  0  0  0  0  0  0  0  0
    8.9990    0.2510    0.0000 H   0  0  0  0  0  0  0  0  0  0  0  0
    7.3702   -1.2468    0.0000 H   0  0  0  0  0  0  0  0  0  0  0  0
    5.5635    0.9840    0.0000 H   0  0  0  0  0  0  0  0  0  0  0  0
    4.8942    0.4941    0.0000 H   0  0  0  0  0  0  0  0  0  0  0  0
    7.7436    3.4572    0.0000 H   0  0  0  0  0  0  0  0  0  0  0  0
    6.9857    3.2063    0.0000 H   0  0  0  0  0  0  0  0  0  0  0  0
    4.6294   -0.3280    0.0000 H   0  0  0  0  0  0  0  0  0  0  0  0
    4.8871   -1.1165    0.0000 H   0  0  0  0  0  0  0  0  0  0  0  0
    9.6622    0.8554    0.0000 H   0  0  0  0  0  0  0  0  0  0  0  0
   10.4256    1.0887    0.0000 H   0  0  0  0  0  0  0  0  0  0  0  0
    6.6416    2.1706    0.0000 H   0  0  0  0  0  0  0  0  0  0  0  0
    5.7876    1.9718    0.0000 H   0  0  0  0  0  0  0  0  0  0  0  0
    5.9864    1.1178    0.0000 H   0  0  0  0  0  0  0  0  0  0  0  0
    6.3660    1.5409    0.0000 H   0  0  0  0  0  0  0  0  0  0  0  0
    5.4955    1.6463    0.0000 H   0  0  0  0  0  0  0  0  0  0  0  0
    5.3902    0.7758    0.0000 H   0  0  0  0  0  0  0  0  0  0  0  0
    8.5615    0.5330    0.0000 H   0  0  0  0  0  0  0  0  0  0  0  0
    9.3404    0.1303    0.0000 H   0  0  0  0  0  0  0  0  0  0  0  0
    9.7431    0.9092    0.0000 H   0  0  0  0  0  0  0  0  0  0  0  0
   10.9190    3.1246    0.0000 H   0  0  0  0  0  0  0  0  0  0  0  0
   11.0184    1.7293    0.0000 H   0  0  0  0  0  0  0  0  0  0  0  0
   11.1921    2.5084    0.0000 H   0  0  0  0  0  0  0  0  0  0  0  0
   10.0610    4.3334    0.0000 H   0  0  0  0  0  0  0  0  0  0  0  0
    9.5793    5.0661    0.0000 H   0  0  0  0  0  0  0  0  0  0  0  0
    8.8467    4.5845    0.0000 H   0  0  0  0  0  0  0  0  0  0  0  0
    8.9168    4.6077    0.0000 H   0  0  0  0  0  0  0  0  0  0  0  0
    8.0414    4.5569    0.0000 H   0  0  0  0  0  0  0  0  0  0  0  0
    8.0922    3.6816    0.0000 H   0  0  0  0  0  0  0  0  0  0  0  0
    8.7016   -1.8637    0.0000 H   0  0  0  0  0  0  0  0  0  0  0  0
    7.5836   -1.9506    0.0000 H   0  0  0  0  0  0  0  0  0  0  0  0
    6.8934   -1.5521    0.0000 H   0  0  0  0  0  0  0  0  0  0  0  0
    5.0010   -1.5427    0.0000 H   0  0  0  0  0  0  0  0  0  0  0  0
    4.3810   -2.1627    0.0000 H   0  0  0  0  0  0  0  0  0  0  0  0
    5.0010   -2.7827    0.0000 H   0  0  0  0  0  0  0  0  0  0  0  0
    6.9184   -3.2408    0.0000 H   0  0  0  0  0  0  0  0  0  0  0  0
    7.6087   -3.6393    0.0000 H   0  0  0  0  0  0  0  0  0  0  0  0
   11.7711    4.3777    0.0000 H   0  0  0  0  0  0  0  0  0  0  0  0
    5.1350   -3.0427    0.0000 H   0  0  0  0  0  0  0  0  0  0  0  0
   11.6623    2.9661    0.0000 H   0  0  0  0  0  0  0  0  0  0  0  0
    5.1350   -5.2827    0.0000 H   0  0  0  0  0  0  0  0  0  0  0  0
    8.8110   -2.4918    0.0000 H   0  0  0  0  0  0  0  0  0  0  0  0
   12.8303    2.1661    0.0000 H   0  0  0  0  0  0  0  0  0  0  0  0
    3.7320   -5.4727    0.0000 H   0  0  0  0  0  0  0  0  0  0  0  0
   13.4195    4.9094    0.0000 H   0  0  0  0  0  0  0  0  0  0  0  0
    3.4030   -3.0427    0.0000 H   0  0  0  0  0  0  0  0  0  0  0  0
   14.1072    2.7776    0.0000 H   0  0  0  0  0  0  0  0  0  0  0  0
    3.4030   -5.2827    0.0000 H   0  0  0  0  0  0  0  0  0  0  0  0
   11.7881    1.5042    0.0000 H   0  0  0  0  0  0  0  0  0  0  0  0
    6.0010   -5.7827    0.0000 H   0  0  0  0  0  0  0  0  0  0  0  0
   14.6613    4.5717    0.0000 H   0  0  0  0  0  0  0  0  0  0  0  0
   14.8286    5.3510    0.0000 H   0  0  0  0  0  0  0  0  0  0  0  0
    1.9264   -3.0550    0.0000 H   0  0  0  0  0  0  0  0  0  0  0  0
    2.3249   -3.7453    0.0000 H   0  0  0  0  0  0  0  0  0  0  0  0
   14.1593    1.5441    0.0000 H   0  0  0  0  0  0  0  0  0  0  0  0
    3.7320   -6.4727    0.0000 H   0  0  0  0  0  0  0  0  0  0  0  0
   10.0010   -4.5147    0.0000 H   0  0  0  0  0  0  0  0  0  0  0  0
   10.6210   -3.8947    0.0000 H   0  0  0  0  0  0  0  0  0  0  0  0
   10.0010   -3.2747    0.0000 H   0  0  0  0  0  0  0  0  0  0  0  0
    7.9641   -4.4508    0.0000 H   0  0  0  0  0  0  0  0  0  0  0  0
    8.1910   -5.2977    0.0000 H   0  0  0  0  0  0  0  0  0  0  0  0
    9.0380   -5.0708    0.0000 H   0  0  0  0  0  0  0  0  0  0  0  0
   15.3104    3.6176    0.0000 H   0  0  0  0  0  0  0  0  0  0  0  0
    2.0000   -4.8527    0.0000 H   0  0  0  0  0  0  0  0  0  0  0  0
   14.3894    6.4727    0.0000 H   0  0  0  0  0  0  0  0  0  0  0  0
    2.0000   -1.8527    0.0000 H   0  0  0  0  0  0  0  0  0  0  0  0
 23  1  1  1  0  0  0
  1 91  1  0  0  0  0
 32  2  1  1  0  0  0
 40  2  1  6  0  0  0
 33  3  1  6  0  0  0
 41  3  1  1  0  0  0
  4 40  1  0  0  0  0
  4 47  1  0  0  0  0
  5 41  1  0  0  0  0
  5 48  1  0  0  0  0
 42  6  1  1  0  0  0
  6110  1  0  0  0  0
 43  7  1  6  0  0  0
  7111  1  0  0  0  0
 45  8  1  6  0  0  0
  8116  1  0  0  0  0
 46  9  1  1  0  0  0
  9117  1  0  0  0  0
 49 10  1  1  0  0  0
 10124  1  0  0  0  0
 50 11  1  6  0  0  0
 11125  1  0  0  0  0
 12 52  1  0  0  0  0
 12126  1  0  0  0  0
 13 53  1  0  0  0  0
 13127  1  0  0  0  0
 14 15  1  0  0  0  0
 14 16  1  0  0  0  0
 14 20  1  0  0  0  0
 14 29  1  1  0  0  0
 15 18  1  0  0  0  0
 15 24  1  0  0  0  0
 15 30  1  6  0  0  0
 16 17  1  0  0  0  0
 16 22  1  0  0  0  0
 16 56  1  6  0  0  0
 17 19  1  0  0  0  0
 17 28  1  0  0  0  0
 17 31  1  1  0  0  0
 18 21  1  0  0  0  0
 18 23  1  0  0  0  0
 18 57  1  1  0  0  0
 19 25  1  0  0  0  0
 19 26  1  0  0  0  0
 19 58  1  6  0  0  0
 20 25  1  0  0  0  0
 20 59  1  0  0  0  0
 20 60  1  0  0  0  0
 21 27  1  0  0  0  0
 21 33  1  0  0  0  0
 21 61  1  6  0  0  0
 22 23  1  0  0  0  0
 22 62  1  0  0  0  0
 22 63  1  0  0  0  0
 23 64  1  0  0  0  0
 24 27  1  0  0  0  0
 24 65  1  0  0  0  0
 24 66  1  0  0  0  0
 25 67  1  0  0  0  0
 25 68  1  0  0  0  0
 26 32  1  0  0  0  0
 26 35  1  0  0  0  0
 26 36  1  0  0  0  0
 27 69  1  0  0  0  0
 27 70  1  0  0  0  0
 28 34  1  0  0  0  0
 28 71  1  0  0  0  0
 28 72  1  0  0  0  0
 29 73  1  0  0  0  0
 29 74  1  0  0  0  0
 29 75  1  0  0  0  0
 30 76  1  0  0  0  0
 30 77  1  0  0  0  0
 30 78  1  0  0  0  0
 31 79  1  0  0  0  0
 31 80  1  0  0  0  0
 31 81  1  0  0  0  0
 32 34  1  0  0  0  0
 32 82  1  0  0  0  0
 33 37  1  0  0  0  0
 33 38  1  0  0  0  0
 34 83  1  0  0  0  0
 34 84  1  0  0  0  0
 35 85  1  0  0  0  0
 35 86  1  0  0  0  0
 35 87  1  0  0  0  0
 36 88  1  0  0  0  0
 36 89  1  0  0  0  0
 36 90  1  0  0  0  0
 37 39  1  0  0  0  0
 37 92  1  0  0  0  0
 37 93  1  0  0  0  0
 38 94  1  0  0  0  0
 38 95  1  0  0  0  0
 38 96  1  0  0  0  0
 39 44  1  0  0  0  0
 39 97  1  0  0  0  0
 39 98  1  0  0  0  0
 40 42  1  0  0  0  0
 40 99  1  0  0  0  0
 41 43  1  0  0  0  0
 41100  1  0  0  0  0
 42 45  1  0  0  0  0
 42101  1  0  0  0  0
 43 46  1  0  0  0  0
 43102  1  0  0  0  0
 44 51  2  0  0  0  0
 44103  1  0  0  0  0
 45 49  1  0  0  0  0
 45104  1  0  0  0  0
 46 50  1  0  0  0  0
 46105  1  0  0  0  0
 47 49  1  0  0  0  0
 47 52  1  6  0  0  0
 47106  1  0  0  0  0
 48 50  1  0  0  0  0
 48 53  1  1  0  0  0
 48107  1  0  0  0  0
 49108  1  0  0  0  0
 50109  1  0  0  0  0
 51 54  1  0  0  0  0
 51 55  1  0  0  0  0
 52112  1  0  0  0  0
 52113  1  0  0  0  0
 53114  1  0  0  0  0
 53115  1  0  0  0  0
 54118  1  0  0  0  0
 54119  1  0  0  0  0
 54120  1  0  0  0  0
 55121  1  0  0  0  0
 55122  1  0  0  0  0
 55123  1  0  0  0  0
M  END
> <PUBCHEM_COMPOUND_CID>
9918692

> <PUBCHEM_COMPOUND_CANONICALIZED>
1

> <PUBCHEM_CACTVS_COMPLEXITY>
1370

> <PUBCHEM_CACTVS_HBOND_ACCEPTOR>
13

> <PUBCHEM_CACTVS_HBOND_DONOR>
9

> <PUBCHEM_CACTVS_ROTATABLE_BOND>
10

> <PUBCHEM_CACTVS_SUBSKEYS>
AAADcfB8PAAAAAAAAAAAAAAAAAAAAYAAAAA0aMECAAAAAGDAAAAAGgAACAAAD1SwgAMCCAAABgCAAiBCAAAAAAAgAAAACAAAAAgREAIAAQAiQAAFgAAPAAPA4PwPgAAAAAAAAADAAAYAADAAAQAACAAAAA==

> <PUBCHEM_IUPAC_OPENEYE_NAME>
(2R,3R,4S,5S,6R)-2-[[(3S,5R,8R,9R,10R,12R,13R,14R,17S)-17-[(1S)-1,5-dimethyl-1-[(2S,3R,4S,5S,6R)-3,4,5-trihydroxy-6-(hydroxymethyl)tetrahydropyran-2-yl]oxy-hex-4-enyl]-12-hydroxy-4,4,8,10,14-pentamethyl-2,3,5,6,7,9,11,12,13,15,16,17-dodecahydro-1H-cyclopenta[a]phenanthren-3-yl]oxy]-6-(hydroxymethyl)tetrahydropyran-3,4,5-triol

> <PUBCHEM_IUPAC_CAS_NAME>
(2R,3S,4S,5R,6R)-2-(hydroxymethyl)-6-[[(3S,5R,8R,9R,10R,12R,13R,14R,17S)-12-hydroxy-4,4,8,10,14-pentamethyl-17-[(2S)-6-methyl-2-[[(2S,3R,4S,5S,6R)-3,4,5-trihydroxy-6-(hydroxymethyl)-2-oxanyl]oxy]hept-5-en-2-yl]-2,3,5,6,7,9,11,12,13,15,16,17-dodecahydro-1H-cyclopenta[a]phenanthren-3-yl]oxy]oxane-3,4,5-triol

> <PUBCHEM_IUPAC_NAME_MARKUP>
(2<I>R</I>,3<I>S</I>,4<I>S</I>,5<I>R</I>,6<I>R</I>)-2-(hydroxymethyl)-6-[[(3<I>S</I>,5<I>R</I>,8<I>R</I>,9<I>R</I>,10<I>R</I>,12<I>R</I>,13<I>R</I>,14<I>R</I>,17<I>S</I>)-12-hydroxy-4,4,8,10,14-pentamethyl-17-[(2<I>S</I>)-6-methyl-2-[(2<I>S</I>,3<I>R</I>,4<I>S</I>,5<I>S</I>,6<I>R</I>)-3,4,5-trihydroxy-6-(hydroxymethyl)oxan-2-yl]oxyhept-5-en-2-yl]-2,3,5,6,7,9,11,12,13,15,16,17-dodecahydro-1<I>H</I>-cyclopenta[a]phenanthren-3-yl]oxy]oxane-3,4,5-triol

> <PUBCHEM_IUPAC_NAME>
(2R,3S,4S,5R,6R)-2-(hydroxymethyl)-6-[[(3S,5R,8R,9R,10R,12R,13R,14R,17S)-12-hydroxy-4,4,8,10,14-pentamethyl-17-[(2S)-6-methyl-2-[(2S,3R,4S,5S,6R)-3,4,5-trihydroxy-6-(hydroxymethyl)oxan-2-yl]oxyhept-5-en-2-yl]-2,3,5,6,7,9,11,12,13,15,16,17-dodecahydro-1H-cyclopenta[a]phenanthren-3-yl]oxy]oxane-3,4,5-triol

> <PUBCHEM_IUPAC_SYSTEMATIC_NAME>
(2R,3S,4S,5R,6R)-2-(hydroxymethyl)-6-[[(3S,5R,8R,9R,10R,12R,13R,14R,17S)-17-[(2S)-2-[(2S,3R,4S,5S,6R)-6-(hydroxymethyl)-3,4,5-tris(oxidanyl)oxan-2-yl]oxy-6-methyl-hept-5-en-2-yl]-4,4,8,10,14-pentamethyl-12-oxidanyl-2,3,5,6,7,9,11,12,13,15,16,17-dodecahydro-1H-cyclopenta[a]phenanthren-3-yl]oxy]oxane-3,4,5-triol

> <PUBCHEM_IUPAC_TRADITIONAL_NAME>
(2R,3R,4S,5S,6R)-2-[[(3S,5R,8R,9R,10R,12R,13R,14R,17S)-17-[(1S)-1,5-dimethyl-1-[(2S,3R,4S,5S,6R)-3,4,5-trihydroxy-6-methylol-tetrahydropyran-2-yl]oxy-hex-4-enyl]-12-hydroxy-4,4,8,10,14-pentamethyl-2,3,5,6,7,9,11,12,13,15,16,17-dodecahydro-1H-cyclopenta[a]phenanthren-3-yl]oxy]-6-methylol-tetrahydropyran-3,4,5-triol

> <PUBCHEM_IUPAC_INCHI>
InChI=1S/C42H72O13/c1-21(2)10-9-14-42(8,55-37-35(51)33(49)31(47)25(20-44)53-37)22-11-16-41(7)29(22)23(45)18-27-39(5)15-13-28(38(3,4)26(39)12-17-40(27,41)6)54-36-34(50)32(48)30(46)24(19-43)52-36/h10,22-37,43-51H,9,11-20H2,1-8H3/t22-,23+,24+,25+,26-,27+,28-,29-,30+,31+,32-,33-,34+,35+,36-,37-,39-,40+,41+,42-/m0/s1

> <PUBCHEM_IUPAC_INCHIKEY>
SWIROVJVGRGSPO-JBVRGBGGSA-N

> <PUBCHEM_XLOGP3_AA>
4

> <PUBCHEM_EXACT_MASS>
784.49729235

> <PUBCHEM_MOLECULAR_FORMULA>
C42H72O13

> <PUBCHEM_MOLECULAR_WEIGHT>
785.0

> <PUBCHEM_OPENEYE_CAN_SMILES>
CC(=CCCC(C)(C1CCC2(C1C(CC3C2(CCC4C3(CCC(C4(C)C)OC5C(C(C(C(O5)CO)O)O)O)C)C)O)C)OC6C(C(C(C(O6)CO)O)O)O)C

> <PUBCHEM_OPENEYE_ISO_SMILES>
CC(=CCC[C@@](C)([C@H]1CC[C@@]2([C@@H]1[C@@H](C[C@H]3[C@]2(CC[C@@H]4[C@@]3(CC[C@@H](C4(C)C)O[C@H]5[C@@H]([C@H]([C@@H]([C@H](O5)CO)O)O)O)C)C)O)C)O[C@H]6[C@@H]([C@H]([C@@H]([C@H](O6)CO)O)O)O)C

> <PUBCHEM_CACTVS_TPSA>
219

> <PUBCHEM_MONOISOTOPIC_WEIGHT>
784.49729235

> <PUBCHEM_TOTAL_CHARGE>
0

> <PUBCHEM_HEAVY_ATOM_COUNT>
55

> <PUBCHEM_ATOM_DEF_STEREO_COUNT>
20

> <PUBCHEM_ATOM_UDEF_STEREO_COUNT>
0

> <PUBCHEM_BOND_DEF_STEREO_COUNT>
0

> <PUBCHEM_BOND_UDEF_STEREO_COUNT>
0

> <PUBCHEM_ISOTOPIC_ATOM_COUNT>
0

> <PUBCHEM_COMPONENT_COUNT>
1

> <PUBCHEM_CACTVS_TAUTO_COUNT>
1

> <PUBCHEM_COORDINATE_TYPE>
1
5
255

> <PUBCHEM_BONDANNOTATIONS>
23  1  5
49  10  5
50  11  6
14  29  5
15  30  6
16  56  6
17  31  5
18  57  5
19  58  6
32  2  5
40  2  6
21  61  6
33  3  6
41  3  5
47  52  6
48  53  5
42  6  5
43  7  6
45  8  6
46  9  5

$$$$
