14520995
  -OEChem-01132213312D

103110  0     1  0  0  0  0  0999 V2000
    7.4678    1.7866    0.0000 O   0  0  0  0  0  0  0  0  0  0  0  0
    4.3660   -3.0562    0.0000 O   0  0  0  0  0  0  0  0  0  0  0  0
    9.1999    3.7866    0.0000 O   0  0  0  0  0  0  0  0  0  0  0  0
    6.7168   -4.4149    0.0000 O   0  0  0  0  0  0  0  0  0  0  0  0
    7.0226   -0.7651    0.0000 O   0  0  0  0  0  0  0  0  0  0  0  0
    5.7194    4.8212    0.0000 O   0  0  0  0  0  0  0  0  0  0  0  0
    3.9377    1.7624    0.0000 O   0  0  0  0  0  0  0  0  0  0  0  0
    3.7540    0.3819    0.0000 O   0  0  0  0  0  0  0  0  0  0  0  0
   10.0659   -0.7134    0.0000 O   0  0  0  0  0  0  0  0  0  0  0  0
   11.7980    2.2866    0.0000 O   0  0  0  0  0  0  0  0  0  0  0  0
    5.6665   -7.2583    0.0000 O   0  0  0  0  0  0  0  0  0  0  0  0
    2.4022   -6.0986    0.0000 O   0  0  0  0  0  0  0  0  0  0  0  0
    8.3339    5.2866    0.0000 O   0  0  0  0  0  0  0  0  0  0  0  0
   11.7980    0.2866    0.0000 O   0  0  0  0  0  0  0  0  0  0  0  0
    8.0264   -3.2812    0.0000 O   0  0  0  0  0  0  0  0  0  0  0  0
    3.6996   -7.6208    0.0000 O   0  0  0  0  0  0  0  0  0  0  0  0
   10.9320    7.7866    0.0000 O   0  0  0  0  0  0  0  0  0  0  0  0
   12.6640    4.7866    0.0000 O   0  0  0  0  0  0  0  0  0  0  0  0
    8.3529   -7.6278    0.0000 O   0  0  0  0  0  0  0  0  0  0  0  0
   10.9719   -5.3605    0.0000 O   0  0  0  0  0  0  0  0  0  0  0  0
   12.6640    6.7866    0.0000 O   0  0  0  0  0  0  0  0  0  0  0  0
   10.3170   -7.2502    0.0000 O   0  0  0  0  0  0  0  0  0  0  0  0
    8.3339    3.2866    0.0000 C   0  0  3  0  0  0  0  0  0  0  0  0
    8.3339    2.2866    0.0000 C   0  0  3  0  0  0  0  0  0  0  0  0
    7.4678    3.7866    0.0000 C   0  0  0  0  0  0  0  0  0  0  0  0
    6.0623   -3.6588    0.0000 C   0  0  3  0  0  0  0  0  0  0  0  0
    5.0386   -3.8516    0.0000 C   0  0  3  0  0  0  0  0  0  0  0  0
    6.3997   -2.6733    0.0000 C   0  0  0  0  0  0  0  0  0  0  0  0
    6.6018    3.2866    0.0000 C   0  0  0  0  0  0  0  0  0  0  0  0
    6.6018    2.2866    0.0000 C   0  0  0  0  0  0  0  0  0  0  0  0
    5.7088   -1.8938    0.0000 C   0  0  0  0  0  0  0  0  0  0  0  0
    5.7079    1.7519    0.0000 C   0  0  0  0  0  0  0  0  0  0  0  0
    5.7194    0.7520    0.0000 C   0  0  0  0  0  0  0  0  0  0  0  0
    5.3883   -0.1916    0.0000 C   0  0  0  0  0  0  0  0  0  0  0  0
    4.7260   -2.0788    0.0000 C   0  0  0  0  0  0  0  0  0  0  0  0
    6.0400   -0.9502    0.0000 C   0  0  0  0  0  0  0  0  0  0  0  0
    9.1999    1.7866    0.0000 C   0  0  0  0  0  0  0  0  0  0  0  0
    5.7079    3.8212    0.0000 C   0  0  0  0  0  0  0  0  0  0  0  0
    4.7039   -4.7938    0.0000 C   0  0  0  0  0  0  0  0  0  0  0  0
    4.8018    2.2658    0.0000 C   0  0  0  0  0  0  0  0  0  0  0  0
    4.4055   -0.3765    0.0000 C   0  0  0  0  0  0  0  0  0  0  0  0
    4.0744   -1.3202    0.0000 C   0  0  0  0  0  0  0  0  0  0  0  0
    4.8018    3.3074    0.0000 C   0  0  0  0  0  0  0  0  0  0  0  0
   10.0659    2.2866    0.0000 C   0  0  0  0  0  0  0  0  0  0  0  0
    9.1999    0.7866    0.0000 C   0  0  0  0  0  0  0  0  0  0  0  0
    3.7204   -4.9751    0.0000 C   0  0  0  0  0  0  0  0  0  0  0  0
    5.3526   -5.5549    0.0000 C   0  0  0  0  0  0  0  0  0  0  0  0
    9.1999    4.7866    0.0000 C   0  0  0  0  0  0  0  0  0  0  0  0
   10.0659    0.2866    0.0000 C   0  0  0  0  0  0  0  0  0  0  0  0
   10.9320    1.7866    0.0000 C   0  0  0  0  0  0  0  0  0  0  0  0
    7.6989   -4.2260    0.0000 C   0  0  0  0  0  0  0  0  0  0  0  0
    5.0178   -6.4972    0.0000 C   0  0  0  0  0  0  0  0  0  0  0  0
    3.3856   -5.9174    0.0000 C   0  0  0  0  0  0  0  0  0  0  0  0
   10.9320    0.7866    0.0000 C   0  0  0  0  0  0  0  0  0  0  0  0
    4.0343   -6.6784    0.0000 C   0  0  0  0  0  0  0  0  0  0  0  0
   10.0659    5.2866    0.0000 C   0  0  0  0  0  0  0  0  0  0  0  0
    8.3534   -4.9821    0.0000 C   0  0  0  0  0  0  0  0  0  0  0  0
   10.9320    4.7866    0.0000 C   0  0  0  0  0  0  0  0  0  0  0  0
   10.0659    6.2866    0.0000 C   0  0  0  0  0  0  0  0  0  0  0  0
    9.3354   -4.7932    0.0000 C   0  0  0  0  0  0  0  0  0  0  0  0
    8.0259   -5.9269    0.0000 C   0  0  0  0  0  0  0  0  0  0  0  0
   10.9320    6.7866    0.0000 C   0  0  0  0  0  0  0  0  0  0  0  0
   11.7980    5.2866    0.0000 C   0  0  0  0  0  0  0  0  0  0  0  0
    8.6804   -6.6830    0.0000 C   0  0  0  0  0  0  0  0  0  0  0  0
    9.9900   -5.5493    0.0000 C   0  0  0  0  0  0  0  0  0  0  0  0
   11.7980    6.2866    0.0000 C   0  0  0  0  0  0  0  0  0  0  0  0
    9.6625   -6.4942    0.0000 C   0  0  0  0  0  0  0  0  0  0  0  0
    8.3339    3.9066    0.0000 H   0  0  0  0  0  0  0  0  0  0  0  0
    8.3339    1.6666    0.0000 H   0  0  0  0  0  0  0  0  0  0  0  0
    7.8664    4.2615    0.0000 H   0  0  0  0  0  0  0  0  0  0  0  0
    7.0693    4.2615    0.0000 H   0  0  0  0  0  0  0  0  0  0  0  0
    5.8581   -4.2442    0.0000 H   0  0  0  0  0  0  0  0  0  0  0  0
    5.4417   -4.3226    0.0000 H   0  0  0  0  0  0  0  0  0  0  0  0
    6.9432   -2.9715    0.0000 H   0  0  0  0  0  0  0  0  0  0  0  0
    6.7865   -2.1888    0.0000 H   0  0  0  0  0  0  0  0  0  0  0  0
    6.1753    0.3317    0.0000 H   0  0  0  0  0  0  0  0  0  0  0  0
    5.1077    0.8526    0.0000 H   0  0  0  0  0  0  0  0  0  0  0  0
    3.4651   -1.4349    0.0000 H   0  0  0  0  0  0  0  0  0  0  0  0
    4.2661    3.6195    0.0000 H   0  0  0  0  0  0  0  0  0  0  0  0
   10.0659    2.9066    0.0000 H   0  0  0  0  0  0  0  0  0  0  0  0
    8.6630    0.4766    0.0000 H   0  0  0  0  0  0  0  0  0  0  0  0
    3.3182   -4.5032    0.0000 H   0  0  0  0  0  0  0  0  0  0  0  0
    5.9623   -5.4426    0.0000 H   0  0  0  0  0  0  0  0  0  0  0  0
    7.4266   -1.2354    0.0000 H   0  0  0  0  0  0  0  0  0  0  0  0
    5.1861    5.1374    0.0000 H   0  0  0  0  0  0  0  0  0  0  0  0
    3.9401    1.1424    0.0000 H   0  0  0  0  0  0  0  0  0  0  0  0
    3.1447    0.2672    0.0000 H   0  0  0  0  0  0  0  0  0  0  0  0
    9.5290   -1.0234    0.0000 H   0  0  0  0  0  0  0  0  0  0  0  0
   12.3349    1.9766    0.0000 H   0  0  0  0  0  0  0  0  0  0  0  0
   10.9320    4.1666    0.0000 H   0  0  0  0  0  0  0  0  0  0  0  0
    9.5290    6.5966    0.0000 H   0  0  0  0  0  0  0  0  0  0  0  0
    5.4589   -7.8425    0.0000 H   0  0  0  0  0  0  0  0  0  0  0  0
    2.0000   -5.6267    0.0000 H   0  0  0  0  0  0  0  0  0  0  0  0
    9.5385   -4.2074    0.0000 H   0  0  0  0  0  0  0  0  0  0  0  0
    7.4171   -6.0440    0.0000 H   0  0  0  0  0  0  0  0  0  0  0  0
   11.7980   -0.3334    0.0000 H   0  0  0  0  0  0  0  0  0  0  0  0
    3.0898   -7.7331    0.0000 H   0  0  0  0  0  0  0  0  0  0  0  0
   10.3950    8.0966    0.0000 H   0  0  0  0  0  0  0  0  0  0  0  0
   13.2009    5.0966    0.0000 H   0  0  0  0  0  0  0  0  0  0  0  0
    8.7587   -8.0966    0.0000 H   0  0  0  0  0  0  0  0  0  0  0  0
   11.1749   -4.7747    0.0000 H   0  0  0  0  0  0  0  0  0  0  0  0
   12.6640    7.4066    0.0000 H   0  0  0  0  0  0  0  0  0  0  0  0
   10.9258   -7.1331    0.0000 H   0  0  0  0  0  0  0  0  0  0  0  0
  1 24  1  0  0  0  0
  1 30  1  0  0  0  0
  2 27  1  0  0  0  0
  2 35  1  0  0  0  0
  3 23  1  0  0  0  0
  3 48  1  0  0  0  0
  4 26  1  0  0  0  0
  4 51  1  0  0  0  0
  5 36  1  0  0  0  0
  5 84  1  0  0  0  0
  6 38  1  0  0  0  0
  6 85  1  0  0  0  0
  7 40  1  0  0  0  0
  7 86  1  0  0  0  0
  8 41  1  0  0  0  0
  8 87  1  0  0  0  0
  9 49  1  0  0  0  0
  9 88  1  0  0  0  0
 10 50  1  0  0  0  0
 10 89  1  0  0  0  0
 11 52  1  0  0  0  0
 11 92  1  0  0  0  0
 12 53  1  0  0  0  0
 12 93  1  0  0  0  0
 13 48  2  0  0  0  0
 14 54  1  0  0  0  0
 14 96  1  0  0  0  0
 15 51  2  0  0  0  0
 16 55  1  0  0  0  0
 16 97  1  0  0  0  0
 17 62  1  0  0  0  0
 17 98  1  0  0  0  0
 18 63  1  0  0  0  0
 18 99  1  0  0  0  0
 19 64  1  0  0  0  0
 19100  1  0  0  0  0
 20 65  1  0  0  0  0
 20101  1  0  0  0  0
 21 66  1  0  0  0  0
 21102  1  0  0  0  0
 22 67  1  0  0  0  0
 22103  1  0  0  0  0
 23 24  1  0  0  0  0
 23 25  1  0  0  0  0
 23 68  1  0  0  0  0
 24 37  1  0  0  0  0
 24 69  1  0  0  0  0
 25 29  1  0  0  0  0
 25 70  1  0  0  0  0
 25 71  1  0  0  0  0
 26 27  1  0  0  0  0
 26 28  1  0  0  0  0
 26 72  1  0  0  0  0
 27 39  1  0  0  0  0
 27 73  1  0  0  0  0
 28 31  1  0  0  0  0
 28 74  1  0  0  0  0
 28 75  1  0  0  0  0
 29 30  2  0  0  0  0
 29 38  1  0  0  0  0
 30 32  1  0  0  0  0
 31 35  2  0  0  0  0
 31 36  1  0  0  0  0
 32 33  1  0  0  0  0
 32 40  2  0  0  0  0
 33 34  1  0  0  0  0
 33 76  1  0  0  0  0
 33 77  1  0  0  0  0
 34 36  2  0  0  0  0
 34 41  1  0  0  0  0
 35 42  1  0  0  0  0
 37 44  2  0  0  0  0
 37 45  1  0  0  0  0
 38 43  2  0  0  0  0
 39 46  2  0  0  0  0
 39 47  1  0  0  0  0
 40 43  1  0  0  0  0
 41 42  2  0  0  0  0
 42 78  1  0  0  0  0
 43 79  1  0  0  0  0
 44 50  1  0  0  0  0
 44 80  1  0  0  0  0
 45 49  2  0  0  0  0
 45 81  1  0  0  0  0
 46 53  1  0  0  0  0
 46 82  1  0  0  0  0
 47 52  2  0  0  0  0
 47 83  1  0  0  0  0
 48 56  1  0  0  0  0
 49 54  1  0  0  0  0
 50 54  2  0  0  0  0
 51 57  1  0  0  0  0
 52 55  1  0  0  0  0
 53 55  2  0  0  0  0
 56 58  2  0  0  0  0
 56 59  1  0  0  0  0
 57 60  2  0  0  0  0
 57 61  1  0  0  0  0
 58 63  1  0  0  0  0
 58 90  1  0  0  0  0
 59 62  2  0  0  0  0
 59 91  1  0  0  0  0
 60 65  1  0  0  0  0
 60 94  1  0  0  0  0
 61 64  2  0  0  0  0
 61 95  1  0  0  0  0
 62 66  1  0  0  0  0
 63 66  2  0  0  0  0
 64 67  1  0  0  0  0
 65 67  2  0  0  0  0
M  END
> <PUBCHEM_COMPOUND_CID>
14520995

> <PUBCHEM_COMPOUND_CANONICALIZED>
1

> <PUBCHEM_CACTVS_COMPLEXITY>
1650

> <PUBCHEM_CACTVS_HBOND_ACCEPTOR>
22

> <PUBCHEM_CACTVS_HBOND_DONOR>
16

> <PUBCHEM_CACTVS_ROTATABLE_BOND>
10

> <PUBCHEM_CACTVS_SUBSKEYS>
AAADcfB8PgAAAAAAAAAAAAAAAAAAAAAAAAA0aMGDAAAAAACRVAAAGgAACAAADBSgmAIwDoAABgCIAiDSCAACCAAkIAAAiAEGiMgNJzKGNRqCeSGlwBULuYfK7PzOIAADCAAIQABAAAYQABCAAAAAAAAAAA==

> <PUBCHEM_IUPAC_OPENEYE_NAME>
[8-[[5,7-dihydroxy-3-(3,4,5-trihydroxybenzoyl)oxy-2-(3,4,5-trihydroxyphenyl)chroman-6-yl]methyl]-5,7-dihydroxy-2-(3,4,5-trihydroxyphenyl)chroman-3-yl] 3,4,5-trihydroxybenzoate

> <PUBCHEM_IUPAC_CAS_NAME>
3,4,5-trihydroxybenzoic acid [8-[[5,7-dihydroxy-3-[oxo-(3,4,5-trihydroxyphenyl)methoxy]-2-(3,4,5-trihydroxyphenyl)-3,4-dihydro-2H-1-benzopyran-6-yl]methyl]-5,7-dihydroxy-2-(3,4,5-trihydroxyphenyl)-3,4-dihydro-2H-1-benzopyran-3-yl] ester

> <PUBCHEM_IUPAC_NAME_MARKUP>
[8-[[5,7-dihydroxy-3-(3,4,5-trihydroxybenzoyl)oxy-2-(3,4,5-trihydroxyphenyl)-3,4-dihydro-2<I>H</I>-chromen-6-yl]methyl]-5,7-dihydroxy-2-(3,4,5-trihydroxyphenyl)-3,4-dihydro-2<I>H</I>-chromen-3-yl] 3,4,5-trihydroxybenzoate

> <PUBCHEM_IUPAC_NAME>
[8-[[5,7-dihydroxy-3-(3,4,5-trihydroxybenzoyl)oxy-2-(3,4,5-trihydroxyphenyl)-3,4-dihydro-2H-chromen-6-yl]methyl]-5,7-dihydroxy-2-(3,4,5-trihydroxyphenyl)-3,4-dihydro-2H-chromen-3-yl] 3,4,5-trihydroxybenzoate

> <PUBCHEM_IUPAC_SYSTEMATIC_NAME>
[8-[[5,7-bis(oxidanyl)-2-[3,4,5-tris(oxidanyl)phenyl]-3-[3,4,5-tris(oxidanyl)phenyl]carbonyloxy-3,4-dihydro-2H-chromen-6-yl]methyl]-5,7-bis(oxidanyl)-2-[3,4,5-tris(oxidanyl)phenyl]-3,4-dihydro-2H-chromen-3-yl] 3,4,5-tris(oxidanyl)benzoate

> <PUBCHEM_IUPAC_TRADITIONAL_NAME>
3,4,5-trihydroxybenzoic acid [8-[[3-galloyloxy-5,7-dihydroxy-2-(3,4,5-trihydroxyphenyl)chroman-6-yl]methyl]-5,7-dihydroxy-2-(3,4,5-trihydroxyphenyl)chroman-3-yl] ester

> <PUBCHEM_IUPAC_INCHI>
InChI=1S/C45H36O22/c46-22-12-23(47)20-10-34(65-44(62)16-5-29(53)39(60)30(54)6-16)42(15-3-27(51)38(59)28(52)4-15)67-43(20)19(22)9-18-24(48)13-33-21(36(18)57)11-35(41(64-33)14-1-25(49)37(58)26(50)2-14)66-45(63)17-7-31(55)40(61)32(56)8-17/h1-8,12-13,34-35,41-42,46-61H,9-11H2

> <PUBCHEM_IUPAC_INCHIKEY>
FKRUMFFNBGSGGM-UHFFFAOYSA-N

> <PUBCHEM_XLOGP3_AA>
4.5

> <PUBCHEM_EXACT_MASS>
928.16982277

> <PUBCHEM_MOLECULAR_FORMULA>
C45H36O22

> <PUBCHEM_MOLECULAR_WEIGHT>
928.8

> <PUBCHEM_OPENEYE_CAN_SMILES>
C1C(C(OC2=C1C(=CC(=C2CC3=C(C4=C(C=C3O)OC(C(C4)OC(=O)C5=CC(=C(C(=C5)O)O)O)C6=CC(=C(C(=C6)O)O)O)O)O)O)C7=CC(=C(C(=C7)O)O)O)OC(=O)C8=CC(=C(C(=C8)O)O)O

> <PUBCHEM_OPENEYE_ISO_SMILES>
C1C(C(OC2=C1C(=CC(=C2CC3=C(C4=C(C=C3O)OC(C(C4)OC(=O)C5=CC(=C(C(=C5)O)O)O)C6=CC(=C(C(=C6)O)O)O)O)O)O)C7=CC(=C(C(=C7)O)O)O)OC(=O)C8=CC(=C(C(=C8)O)O)O

> <PUBCHEM_CACTVS_TPSA>
395

> <PUBCHEM_MONOISOTOPIC_WEIGHT>
928.16982277

> <PUBCHEM_TOTAL_CHARGE>
0

> <PUBCHEM_HEAVY_ATOM_COUNT>
67

> <PUBCHEM_ATOM_DEF_STEREO_COUNT>
0

> <PUBCHEM_ATOM_UDEF_STEREO_COUNT>
4

> <PUBCHEM_BOND_DEF_STEREO_COUNT>
0

> <PUBCHEM_BOND_UDEF_STEREO_COUNT>
0

> <PUBCHEM_ISOTOPIC_ATOM_COUNT>
0

> <PUBCHEM_COMPONENT_COUNT>
1

> <PUBCHEM_CACTVS_TAUTO_COUNT>
-1

> <PUBCHEM_COORDINATE_TYPE>
1
5
255

> <PUBCHEM_BONDANNOTATIONS>
24  37  3
27  39  3
29  30  8
29  38  8
23  3  3
30  32  8
31  35  8
31  36  8
32  40  8
34  36  8
34  41  8
35  42  8
37  44  8
37  45  8
38  43  8
39  46  8
39  47  8
26  4  3
40  43  8
41  42  8
44  50  8
45  49  8
46  53  8
47  52  8
49  54  8
50  54  8
52  55  8
53  55  8
56  58  8
56  59  8
57  60  8
57  61  8
58  63  8
59  62  8
60  65  8
61  64  8
62  66  8
63  66  8
64  67  8
65  67  8

$$$$
