102479008
  -OEChem-01132214232D

123129  0     1  0  0  0  0  0999 V2000
   11.1384    0.2657    0.0000 O   0  0  0  0  0  0  0  0  0  0  0  0
   11.7615    2.7283    0.0000 O   0  0  0  0  0  0  0  0  0  0  0  0
    3.9791    6.4243    0.0000 O   0  0  0  0  0  0  0  0  0  0  0  0
    5.7110    6.4443    0.0000 O   0  0  0  0  0  0  0  0  0  0  0  0
   10.2724   -1.2343    0.0000 O   0  0  0  0  0  0  0  0  0  0  0  0
   12.8705   -0.7343    0.0000 O   0  0  0  0  0  0  0  0  0  0  0  0
   12.8705   -2.7343    0.0000 O   0  0  0  0  0  0  0  0  0  0  0  0
   11.1384   -3.7343    0.0000 O   0  0  0  0  0  0  0  0  0  0  0  0
    9.4064   -3.7343    0.0000 O   0  0  0  0  0  0  0  0  0  0  0  0
    7.6743   -3.7343    0.0000 O   0  0  0  0  0  0  0  0  0  0  0  0
    9.4064   -5.7343    0.0000 O   0  0  0  0  0  0  0  0  0  0  0  0
    7.6743   -6.7343    0.0000 O   0  0  0  0  0  0  0  0  0  0  0  0
    5.9423   -5.7343    0.0000 O   0  0  0  0  0  0  0  0  0  0  0  0
    7.5184    3.3962    0.0000 C   0  0  2  0  0  0  0  0  0  0  0  0
    7.5223    2.3962    0.0000 C   0  0  1  0  0  0  0  0  0  0  0  0
    8.4183    1.8650    0.0000 C   0  0  2  0  0  0  0  0  0  0  0  0
    6.6505    3.8928    0.0000 C   0  0  1  0  0  0  0  0  0  0  0  0
    9.3224    2.3823    0.0000 C   0  0  2  0  0  0  0  0  0  0  0  0
    8.4103    3.9343    0.0000 C   0  0  0  0  0  0  0  0  0  0  0  0
   10.2682    1.8507    0.0000 C   0  0  1  0  0  0  0  0  0  0  0  0
    9.3184    3.4240    0.0000 C   0  0  0  0  0  0  0  0  0  0  0  0
    5.7864    3.3895    0.0000 C   0  0  0  0  0  0  0  0  0  0  0  0
    8.3974    0.7802    0.0000 C   0  0  0  0  0  0  0  0  0  0  0  0
    6.6582    1.8929    0.0000 C   0  0  0  0  0  0  0  0  0  0  0  0
    4.8745    3.8928    0.0000 C   0  0  1  0  0  0  0  0  0  0  0  0
    6.6625    4.9344    0.0000 C   0  0  0  0  0  0  0  0  0  0  0  0
    4.8624    4.9344    0.0000 C   0  0  1  0  0  0  0  0  0  0  0  0
   10.2724    0.7657    0.0000 C   0  0  2  0  0  0  0  0  0  0  0  0
    7.8568    4.3372    0.0000 C   0  0  0  0  0  0  0  0  0  0  0  0
    5.7625    5.4587    0.0000 C   0  0  0  0  0  0  0  0  0  0  0  0
    7.5503    1.3683    0.0000 C   0  0  0  0  0  0  0  0  0  0  0  0
    9.3307    0.2269    0.0000 C   0  0  0  0  0  0  0  0  0  0  0  0
    5.7902    2.3895    0.0000 C   0  0  0  0  0  0  0  0  0  0  0  0
    7.2903    4.6614    0.0000 C   0  0  0  0  0  0  0  0  0  0  0  0
    3.9498    3.3252    0.0000 C   0  0  0  0  0  0  0  0  0  0  0  0
    3.9249    5.4805    0.0000 C   0  0  0  0  0  0  0  0  0  0  0  0
    2.9999    3.8495    0.0000 C   0  0  0  0  0  0  0  0  0  0  0  0
   10.7615    2.7206    0.0000 C   0  0  0  0  0  0  0  0  0  0  0  0
   11.2682    1.8584    0.0000 C   0  0  0  0  0  0  0  0  0  0  0  0
    2.9873    4.9344    0.0000 C   0  0  0  0  0  0  0  0  0  0  0  0
    4.8508    5.9344    0.0000 C   0  0  0  0  0  0  0  0  0  0  0  0
    2.0000    3.8341    0.0000 C   0  0  0  0  0  0  0  0  0  0  0  0
    2.5133    2.9759    0.0000 C   0  0  0  0  0  0  0  0  0  0  0  0
   11.1384   -0.7343    0.0000 C   0  0  2  0  0  0  0  0  0  0  0  0
   12.0044   -1.2343    0.0000 C   0  0  1  0  0  0  0  0  0  0  0  0
   12.0044   -2.2343    0.0000 C   0  0  2  0  0  0  0  0  0  0  0  0
   10.2724   -2.2343    0.0000 C   0  0  1  0  0  0  0  0  0  0  0  0
   11.1384   -2.7343    0.0000 C   0  0  1  0  0  0  0  0  0  0  0  0
    9.4064   -2.7343    0.0000 C   0  0  0  0  0  0  0  0  0  0  0  0
    8.5403   -4.2343    0.0000 C   0  0  2  0  0  0  0  0  0  0  0  0
    8.5403   -5.2343    0.0000 C   0  0  1  0  0  0  0  0  0  0  0  0
    7.6743   -5.7343    0.0000 C   0  0  1  0  0  0  0  0  0  0  0  0
    6.8083   -4.2343    0.0000 C   0  0  2  0  0  0  0  0  0  0  0  0
    6.8083   -5.2343    0.0000 C   0  0  2  0  0  0  0  0  0  0  0  0
    5.9423   -3.7343    0.0000 C   0  0  0  0  0  0  0  0  0  0  0  0
    8.2600    2.8184    0.0000 H   0  0  0  0  0  0  0  0  0  0  0  0
   10.0552    2.8130    0.0000 H   0  0  0  0  0  0  0  0  0  0  0  0
    8.8021    4.4148    0.0000 H   0  0  0  0  0  0  0  0  0  0  0  0
    8.0039    4.4025    0.0000 H   0  0  0  0  0  0  0  0  0  0  0  0
    9.9296    3.3202    0.0000 H   0  0  0  0  0  0  0  0  0  0  0  0
    9.5252    4.0084    0.0000 H   0  0  0  0  0  0  0  0  0  0  0  0
    7.7887    0.8980    0.0000 H   0  0  0  0  0  0  0  0  0  0  0  0
    8.1771    0.2006    0.0000 H   0  0  0  0  0  0  0  0  0  0  0  0
    6.2615    1.4164    0.0000 H   0  0  0  0  0  0  0  0  0  0  0  0
    7.0586    1.4195    0.0000 H   0  0  0  0  0  0  0  0  0  0  0  0
    4.8941    3.0431    0.0000 H   0  0  0  0  0  0  0  0  0  0  0  0
    7.2721    4.8213    0.0000 H   0  0  0  0  0  0  0  0  0  0  0  0
    6.8783    5.5156    0.0000 H   0  0  0  0  0  0  0  0  0  0  0  0
   10.2712    0.1457    0.0000 H   0  0  0  0  0  0  0  0  0  0  0  0
    8.4402    4.1274    0.0000 H   0  0  0  0  0  0  0  0  0  0  0  0
    8.0666    4.9206    0.0000 H   0  0  0  0  0  0  0  0  0  0  0  0
    7.2734    4.5470    0.0000 H   0  0  0  0  0  0  0  0  0  0  0  0
    6.1616    5.9331    0.0000 H   0  0  0  0  0  0  0  0  0  0  0  0
    5.3633    5.9331    0.0000 H   0  0  0  0  0  0  0  0  0  0  0  0
    7.2424    1.9065    0.0000 H   0  0  0  0  0  0  0  0  0  0  0  0
    7.0122    1.0604    0.0000 H   0  0  0  0  0  0  0  0  0  0  0  0
    7.8583    0.8302    0.0000 H   0  0  0  0  0  0  0  0  0  0  0  0
    8.9279   -0.2445    0.0000 H   0  0  0  0  0  0  0  0  0  0  0  0
    9.7261   -0.2506    0.0000 H   0  0  0  0  0  0  0  0  0  0  0  0
    5.2545    2.0775    0.0000 H   0  0  0  0  0  0  0  0  0  0  0  0
    7.7668    4.2647    0.0000 H   0  0  0  0  0  0  0  0  0  0  0  0
    7.6870    5.1378    0.0000 H   0  0  0  0  0  0  0  0  0  0  0  0
    6.8138    5.0581    0.0000 H   0  0  0  0  0  0  0  0  0  0  0  0
    3.5617    2.8417    0.0000 H   0  0  0  0  0  0  0  0  0  0  0  0
    4.3598    2.8601    0.0000 H   0  0  0  0  0  0  0  0  0  0  0  0
    4.3240    5.9550    0.0000 H   0  0  0  0  0  0  0  0  0  0  0  0
    3.5257    5.9550    0.0000 H   0  0  0  0  0  0  0  0  0  0  0  0
   10.8645    3.3320    0.0000 H   0  0  0  0  0  0  0  0  0  0  0  0
   10.1773    2.9281    0.0000 H   0  0  0  0  0  0  0  0  0  0  0  0
   11.2730    1.2385    0.0000 H   0  0  0  0  0  0  0  0  0  0  0  0
   11.8882    1.8632    0.0000 H   0  0  0  0  0  0  0  0  0  0  0  0
   11.2634    2.4784    0.0000 H   0  0  0  0  0  0  0  0  0  0  0  0
    2.7715    5.5156    0.0000 H   0  0  0  0  0  0  0  0  0  0  0  0
    2.3777    4.8213    0.0000 H   0  0  0  0  0  0  0  0  0  0  0  0
    1.9904    4.4540    0.0000 H   0  0  0  0  0  0  0  0  0  0  0  0
    1.3801    3.8245    0.0000 H   0  0  0  0  0  0  0  0  0  0  0  0
    2.0096    3.2142    0.0000 H   0  0  0  0  0  0  0  0  0  0  0  0
    1.9716    3.2776    0.0000 H   0  0  0  0  0  0  0  0  0  0  0  0
    2.2116    2.4342    0.0000 H   0  0  0  0  0  0  0  0  0  0  0  0
    3.0549    2.6742    0.0000 H   0  0  0  0  0  0  0  0  0  0  0  0
   11.6754   -0.4243    0.0000 H   0  0  0  0  0  0  0  0  0  0  0  0
   12.0673    3.2676    0.0000 H   0  0  0  0  0  0  0  0  0  0  0  0
    3.9719    7.0443    0.0000 H   0  0  0  0  0  0  0  0  0  0  0  0
   12.5414   -1.5443    0.0000 H   0  0  0  0  0  0  0  0  0  0  0  0
   12.5414   -1.9243    0.0000 H   0  0  0  0  0  0  0  0  0  0  0  0
    9.7355   -1.9243    0.0000 H   0  0  0  0  0  0  0  0  0  0  0  0
   11.6754   -3.0443    0.0000 H   0  0  0  0  0  0  0  0  0  0  0  0
   12.8705   -0.1143    0.0000 H   0  0  0  0  0  0  0  0  0  0  0  0
    9.1943   -2.1516    0.0000 H   0  0  0  0  0  0  0  0  0  0  0  0
    8.7958   -2.8419    0.0000 H   0  0  0  0  0  0  0  0  0  0  0  0
   13.4074   -2.4243    0.0000 H   0  0  0  0  0  0  0  0  0  0  0  0
   11.6754   -4.0443    0.0000 H   0  0  0  0  0  0  0  0  0  0  0  0
    8.5403   -3.6143    0.0000 H   0  0  0  0  0  0  0  0  0  0  0  0
    8.5403   -5.8543    0.0000 H   0  0  0  0  0  0  0  0  0  0  0  0
    7.1374   -6.0443    0.0000 H   0  0  0  0  0  0  0  0  0  0  0  0
    6.8083   -3.6143    0.0000 H   0  0  0  0  0  0  0  0  0  0  0  0
    6.8083   -5.8543    0.0000 H   0  0  0  0  0  0  0  0  0  0  0  0
    9.9433   -5.4243    0.0000 H   0  0  0  0  0  0  0  0  0  0  0  0
    6.2523   -3.1973    0.0000 H   0  0  0  0  0  0  0  0  0  0  0  0
    5.4053   -3.4243    0.0000 H   0  0  0  0  0  0  0  0  0  0  0  0
    5.6323   -4.2712    0.0000 H   0  0  0  0  0  0  0  0  0  0  0  0
    7.1374   -7.0443    0.0000 H   0  0  0  0  0  0  0  0  0  0  0  0
    5.4053   -5.4243    0.0000 H   0  0  0  0  0  0  0  0  0  0  0  0
 28  1  1  1  0  0  0
 44  1  1  1  0  0  0
  2 38  1  0  0  0  0
  2102  1  0  0  0  0
  3 41  1  0  0  0  0
  3103  1  0  0  0  0
  4 41  2  0  0  0  0
  5 44  1  0  0  0  0
  5 47  1  0  0  0  0
 45  6  1  6  0  0  0
  6108  1  0  0  0  0
 46  7  1  1  0  0  0
  7111  1  0  0  0  0
 48  8  1  6  0  0  0
  8112  1  0  0  0  0
  9 49  1  0  0  0  0
 50  9  1  1  0  0  0
 10 50  1  0  0  0  0
 10 53  1  0  0  0  0
 51 11  1  6  0  0  0
 11118  1  0  0  0  0
 52 12  1  6  0  0  0
 12122  1  0  0  0  0
 54 13  1  1  0  0  0
 13123  1  0  0  0  0
 14 15  1  0  0  0  0
 14 17  1  0  0  0  0
 14 19  1  0  0  0  0
 14 29  1  1  0  0  0
 15 16  1  0  0  0  0
 15 24  1  0  0  0  0
 15 56  1  6  0  0  0
 16 18  1  0  0  0  0
 16 23  1  0  0  0  0
 16 31  1  1  0  0  0
 17 22  1  0  0  0  0
 17 26  1  0  0  0  0
 17 34  1  6  0  0  0
 18 20  1  0  0  0  0
 18 21  1  0  0  0  0
 18 57  1  6  0  0  0
 19 21  1  0  0  0  0
 19 58  1  0  0  0  0
 19 59  1  0  0  0  0
 20 28  1  0  0  0  0
 20 38  1  0  0  0  0
 20 39  1  1  0  0  0
 21 60  1  0  0  0  0
 21 61  1  0  0  0  0
 22 25  1  0  0  0  0
 22 33  2  0  0  0  0
 23 32  1  0  0  0  0
 23 62  1  0  0  0  0
 23 63  1  0  0  0  0
 24 33  1  0  0  0  0
 24 64  1  0  0  0  0
 24 65  1  0  0  0  0
 25 27  1  0  0  0  0
 25 35  1  0  0  0  0
 25 66  1  1  0  0  0
 26 30  1  0  0  0  0
 26 67  1  0  0  0  0
 26 68  1  0  0  0  0
 27 30  1  0  0  0  0
 27 36  1  0  0  0  0
 27 41  1  1  0  0  0
 28 32  1  0  0  0  0
 28 69  1  0  0  0  0
 29 70  1  0  0  0  0
 29 71  1  0  0  0  0
 29 72  1  0  0  0  0
 30 73  1  0  0  0  0
 30 74  1  0  0  0  0
 31 75  1  0  0  0  0
 31 76  1  0  0  0  0
 31 77  1  0  0  0  0
 32 78  1  0  0  0  0
 32 79  1  0  0  0  0
 33 80  1  0  0  0  0
 34 81  1  0  0  0  0
 34 82  1  0  0  0  0
 34 83  1  0  0  0  0
 35 37  1  0  0  0  0
 35 84  1  0  0  0  0
 35 85  1  0  0  0  0
 36 40  1  0  0  0  0
 36 86  1  0  0  0  0
 36 87  1  0  0  0  0
 37 40  1  0  0  0  0
 37 42  1  0  0  0  0
 37 43  1  0  0  0  0
 38 88  1  0  0  0  0
 38 89  1  0  0  0  0
 39 90  1  0  0  0  0
 39 91  1  0  0  0  0
 39 92  1  0  0  0  0
 40 93  1  0  0  0  0
 40 94  1  0  0  0  0
 42 95  1  0  0  0  0
 42 96  1  0  0  0  0
 42 97  1  0  0  0  0
 43 98  1  0  0  0  0
 43 99  1  0  0  0  0
 43100  1  0  0  0  0
 44 45  1  0  0  0  0
 44101  1  0  0  0  0
 45 46  1  0  0  0  0
 45104  1  0  0  0  0
 46 48  1  0  0  0  0
 46105  1  0  0  0  0
 47 48  1  0  0  0  0
 47 49  1  1  0  0  0
 47106  1  0  0  0  0
 48107  1  0  0  0  0
 49109  1  0  0  0  0
 49110  1  0  0  0  0
 50 51  1  0  0  0  0
 50113  1  0  0  0  0
 51 52  1  0  0  0  0
 51114  1  0  0  0  0
 52 54  1  0  0  0  0
 52115  1  0  0  0  0
 53 54  1  0  0  0  0
 53 55  1  6  0  0  0
 53116  1  0  0  0  0
 54117  1  0  0  0  0
 55119  1  0  0  0  0
 55120  1  0  0  0  0
 55121  1  0  0  0  0
M  END
> <PUBCHEM_COMPOUND_CID>
102479008

> <PUBCHEM_COMPOUND_CANONICALIZED>
1

> <PUBCHEM_CACTVS_COMPLEXITY>
1490

> <PUBCHEM_CACTVS_HBOND_ACCEPTOR>
13

> <PUBCHEM_CACTVS_HBOND_DONOR>
8

> <PUBCHEM_CACTVS_ROTATABLE_BOND>
7

> <PUBCHEM_CACTVS_SUBSKEYS>
AAADcfB8PAAAAAAAAAAAAAAAAAAAAAAAAAA0aMGCAAAAAADAAAAAGgAACAAADxSwgAMCCAAABgCIAiDSCAAAAAAgAAAACAEAAAgREBIAAQAiQAAFgAAPAAPI6PyPgAAAAAAAAADAAAYAADAAAAAAAAAAAA==

> <PUBCHEM_IUPAC_OPENEYE_NAME>
(4aS,6aR,6aS,6bR,8aR,9R,10S,12aR,14bS)-9-(hydroxymethyl)-2,2,6a,6b,9,12a-hexamethyl-10-[(2R,3R,4S,5S,6R)-3,4,5-trihydroxy-6-[[(2R,3R,4R,5R,6S)-3,4,5-trihydroxy-6-methyl-tetrahydropyran-2-yl]oxymethyl]tetrahydropyran-2-yl]oxy-1,3,4,5,6,6a,7,8,8a,10,11,12,13,14b-tetradecahydropicene-4a-carboxylic acid

> <PUBCHEM_IUPAC_CAS_NAME>
(4aS,6aR,6aS,6bR,8aR,9R,10S,12aR,14bS)-9-(hydroxymethyl)-2,2,6a,6b,9,12a-hexamethyl-10-[[(2R,3R,4S,5S,6R)-3,4,5-trihydroxy-6-[[(2R,3R,4R,5R,6S)-3,4,5-trihydroxy-6-methyl-2-oxanyl]oxymethyl]-2-oxanyl]oxy]-1,3,4,5,6,6a,7,8,8a,10,11,12,13,14b-tetradecahydropicene-4a-carboxylic acid

> <PUBCHEM_IUPAC_NAME_MARKUP>
(4<I>a</I><I>S</I>,6<I>a</I><I>R</I>,6<I>a</I><I>S</I>,6<I>b</I><I>R</I>,8<I>a</I><I>R</I>,9<I>R</I>,10<I>S</I>,12<I>a</I><I>R</I>,14<I>b</I><I>S</I>)-9-(hydroxymethyl)-2,2,6<I>a</I>,6<I>b</I>,9,12<I>a</I>-hexamethyl-10-[(2<I>R</I>,3<I>R</I>,4<I>S</I>,5<I>S</I>,6<I>R</I>)-3,4,5-trihydroxy-6-[[(2<I>R</I>,3<I>R</I>,4<I>R</I>,5<I>R</I>,6<I>S</I>)-3,4,5-trihydroxy-6-methyloxan-2-yl]oxymethyl]oxan-2-yl]oxy-1,3,4,5,6,6<I>a</I>,7,8,8<I>a</I>,10,11,12,13,14<I>b</I>-tetradecahydropicene-4<I>a</I>-carboxylic acid

> <PUBCHEM_IUPAC_NAME>
(4aS,6aR,6aS,6bR,8aR,9R,10S,12aR,14bS)-9-(hydroxymethyl)-2,2,6a,6b,9,12a-hexamethyl-10-[(2R,3R,4S,5S,6R)-3,4,5-trihydroxy-6-[[(2R,3R,4R,5R,6S)-3,4,5-trihydroxy-6-methyloxan-2-yl]oxymethyl]oxan-2-yl]oxy-1,3,4,5,6,6a,7,8,8a,10,11,12,13,14b-tetradecahydropicene-4a-carboxylic acid

> <PUBCHEM_IUPAC_SYSTEMATIC_NAME>
(4aS,6aR,6aS,6bR,8aR,9R,10S,12aR,14bS)-9-(hydroxymethyl)-2,2,6a,6b,9,12a-hexamethyl-10-[(2R,3R,4S,5S,6R)-6-[[(2R,3R,4R,5R,6S)-6-methyl-3,4,5-tris(oxidanyl)oxan-2-yl]oxymethyl]-3,4,5-tris(oxidanyl)oxan-2-yl]oxy-1,3,4,5,6,6a,7,8,8a,10,11,12,13,14b-tetradecahydropicene-4a-carboxylic acid

> <PUBCHEM_IUPAC_TRADITIONAL_NAME>
(4aS,6aR,6aS,6bR,8aR,9R,10S,12aR,14bS)-2,2,6a,6b,9,12a-hexamethyl-9-methylol-10-[(2R,3R,4S,5S,6R)-3,4,5-trihydroxy-6-[[(2R,3R,4R,5R,6S)-3,4,5-trihydroxy-6-methyl-tetrahydropyran-2-yl]oxymethyl]tetrahydropyran-2-yl]oxy-1,3,4,5,6,6a,7,8,8a,10,11,12,13,14b-tetradecahydropicene-4a-carboxylic acid

> <PUBCHEM_IUPAC_INCHI>
InChI=1S/C42H68O13/c1-21-28(44)30(46)32(48)34(53-21)52-19-24-29(45)31(47)33(49)35(54-24)55-27-11-12-38(4)25(39(27,5)20-43)10-13-41(7)26(38)9-8-22-23-18-37(2,3)14-16-42(23,36(50)51)17-15-40(22,41)6/h8,21,23-35,43-49H,9-20H2,1-7H3,(H,50,51)/t21-,23-,24+,25+,26+,27-,28-,29+,30+,31-,32+,33+,34+,35-,38-,39-,40+,41+,42-/m0/s1

> <PUBCHEM_IUPAC_INCHIKEY>
BQDDXZKFKRKAQC-MPZMNCCLSA-N

> <PUBCHEM_XLOGP3_AA>
3

> <PUBCHEM_EXACT_MASS>
780.46599222

> <PUBCHEM_MOLECULAR_FORMULA>
C42H68O13

> <PUBCHEM_MOLECULAR_WEIGHT>
781.0

> <PUBCHEM_OPENEYE_CAN_SMILES>
CC1C(C(C(C(O1)OCC2C(C(C(C(O2)OC3CCC4(C(C3(C)CO)CCC5(C4CC=C6C5(CCC7(C6CC(CC7)(C)C)C(=O)O)C)C)C)O)O)O)O)O)O

> <PUBCHEM_OPENEYE_ISO_SMILES>
C[C@H]1[C@@H]([C@H]([C@H]([C@@H](O1)OC[C@@H]2[C@H]([C@@H]([C@H]([C@@H](O2)O[C@H]3CC[C@]4([C@H]([C@]3(C)CO)CC[C@@]5([C@@H]4CC=C6[C@]5(CC[C@@]7([C@H]6CC(CC7)(C)C)C(=O)O)C)C)C)O)O)O)O)O)O

> <PUBCHEM_CACTVS_TPSA>
216

> <PUBCHEM_MONOISOTOPIC_WEIGHT>
780.46599222

> <PUBCHEM_TOTAL_CHARGE>
0

> <PUBCHEM_HEAVY_ATOM_COUNT>
55

> <PUBCHEM_ATOM_DEF_STEREO_COUNT>
19

> <PUBCHEM_ATOM_UDEF_STEREO_COUNT>
0

> <PUBCHEM_BOND_DEF_STEREO_COUNT>
0

> <PUBCHEM_BOND_UDEF_STEREO_COUNT>
0

> <PUBCHEM_ISOTOPIC_ATOM_COUNT>
0

> <PUBCHEM_COMPONENT_COUNT>
1

> <PUBCHEM_CACTVS_TAUTO_COUNT>
-1

> <PUBCHEM_COORDINATE_TYPE>
1
5
255

> <PUBCHEM_BONDANNOTATIONS>
28  1  5
44  1  5
51  11  6
52  12  6
54  13  5
14  29  5
15  56  6
16  31  5
17  34  6
18  57  6
20  39  5
25  66  5
27  41  5
47  49  5
53  55  6
45  6  6
46  7  5
48  8  6
50  9  5

$$$$
