24866957
  -OEChem-01142201162D

141148  0     1  0  0  0  0  0999 V2000
    9.4651    1.1850    0.0000 O   0  0  0  0  0  0  0  0  0  0  0  0
   11.2862   -0.5858    0.0000 O   0  0  0  0  0  0  0  0  0  0  0  0
   18.3783    4.3059    0.0000 O   0  0  0  0  0  0  0  0  0  0  0  0
   17.5296    2.7960    0.0000 O   0  0  0  0  0  0  0  0  0  0  0  0
    8.5991    2.6850    0.0000 O   0  0  0  0  0  0  0  0  0  0  0  0
    7.7331    0.1850    0.0000 O   0  0  0  0  0  0  0  0  0  0  0  0
    6.0010    1.1850    0.0000 O   0  0  0  0  0  0  0  0  0  0  0  0
    6.0010    3.1850    0.0000 O   0  0  0  0  0  0  0  0  0  0  0  0
    6.0010    0.1850    0.0000 O   0  0  0  0  0  0  0  0  0  0  0  0
    7.7331   -1.8150    0.0000 O   0  0  0  0  0  0  0  0  0  0  0  0
    6.0010   -2.8150    0.0000 O   0  0  0  0  0  0  0  0  0  0  0  0
    4.2690   -1.8150    0.0000 O   0  0  0  0  0  0  0  0  0  0  0  0
    4.2690   -2.8150    0.0000 O   0  0  0  0  0  0  0  0  0  0  0  0
    6.0010   -4.8150    0.0000 O   0  0  0  0  0  0  0  0  0  0  0  0
    4.2690   -5.8150    0.0000 O   0  0  0  0  0  0  0  0  0  0  0  0
    2.5369   -4.8150    0.0000 O   0  0  0  0  0  0  0  0  0  0  0  0
    2.5369   -5.8150    0.0000 O   0  0  0  0  0  0  0  0  0  0  0  0
   13.9862    2.7548    0.0000 C   0  0  2  0  0  0  0  0  0  0  0  0
   13.1182    3.2515    0.0000 C   0  0  1  0  0  0  0  0  0  0  0  0
   12.2102    2.7411    0.0000 C   0  0  2  0  0  0  0  0  0  0  0  0
   14.8503    3.2581    0.0000 C   0  0  1  0  0  0  0  0  0  0  0  0
   12.2062    1.6995    0.0000 C   0  0  2  0  0  0  0  0  0  0  0  0
   14.0063    1.7134    0.0000 C   0  0  0  0  0  0  0  0  0  0  0  0
   11.2729    1.1462    0.0000 C   0  0  1  0  0  0  0  0  0  0  0  0
   13.1103    1.1822    0.0000 C   0  0  0  0  0  0  0  0  0  0  0  0
   14.8464    4.2581    0.0000 C   0  0  0  0  0  0  0  0  0  0  0  0
   11.2812    3.3016    0.0000 C   0  0  0  0  0  0  0  0  0  0  0  0
   13.1144    4.2514    0.0000 C   0  0  0  0  0  0  0  0  0  0  0  0
   15.7383    4.7962    0.0000 C   0  0  1  0  0  0  0  0  0  0  0  0
   15.7463    2.7269    0.0000 C   0  0  0  0  0  0  0  0  0  0  0  0
   16.6463    4.2859    0.0000 C   0  0  1  0  0  0  0  0  0  0  0  0
   10.3312    1.6850    0.0000 C   0  0  2  0  0  0  0  0  0  0  0  0
   14.6319    1.9912    0.0000 C   0  0  0  0  0  0  0  0  0  0  0  0
   16.6503    3.2443    0.0000 C   0  0  0  0  0  0  0  0  0  0  0  0
   12.2140    3.7411    0.0000 C   0  0  0  0  0  0  0  0  0  0  0  0
   10.3353    2.7700    0.0000 C   0  0  0  0  0  0  0  0  0  0  0  0
   13.9785    4.7548    0.0000 C   0  0  0  0  0  0  0  0  0  0  0  0
   15.1959    2.3198    0.0000 C   0  0  0  0  0  0  0  0  0  0  0  0
   15.7090    5.8808    0.0000 C   0  0  0  0  0  0  0  0  0  0  0  0
   17.5881    4.8248    0.0000 C   0  0  0  0  0  0  0  0  0  0  0  0
   16.6380    6.4413    0.0000 C   0  0  0  0  0  0  0  0  0  0  0  0
   11.7795    0.2840    0.0000 C   0  0  0  0  0  0  0  0  0  0  0  0
   10.7796    0.2763    0.0000 C   0  0  0  0  0  0  0  0  0  0  0  0
   17.5839    5.9097    0.0000 C   0  0  0  0  0  0  0  0  0  0  0  0
   17.5181    3.7959    0.0000 C   0  0  0  0  0  0  0  0  0  0  0  0
   17.1246    7.3150    0.0000 C   0  0  0  0  0  0  0  0  0  0  0  0
   16.1247    7.2996    0.0000 C   0  0  0  0  0  0  0  0  0  0  0  0
    8.5991    1.6850    0.0000 C   0  0  2  0  0  0  0  0  0  0  0  0
    7.7331    1.1850    0.0000 C   0  0  1  0  0  0  0  0  0  0  0  0
    6.8671    1.6850    0.0000 C   0  0  2  0  0  0  0  0  0  0  0  0
    7.7331    3.1850    0.0000 C   0  0  0  0  0  0  0  0  0  0  0  0
    6.8671    2.6850    0.0000 C   0  0  2  0  0  0  0  0  0  0  0  0
    6.8671   -0.3150    0.0000 C   0  0  2  0  0  0  0  0  0  0  0  0
    6.8671   -1.3150    0.0000 C   0  0  1  0  0  0  0  0  0  0  0  0
    6.0010   -1.8150    0.0000 C   0  0  1  0  0  0  0  0  0  0  0  0
    5.1350   -0.3150    0.0000 C   0  0  2  0  0  0  0  0  0  0  0  0
    5.1350   -1.3150    0.0000 C   0  0  2  0  0  0  0  0  0  0  0  0
    4.2690    0.1850    0.0000 C   0  0  0  0  0  0  0  0  0  0  0  0
    5.1350   -3.3150    0.0000 C   0  0  2  0  0  0  0  0  0  0  0  0
    5.1350   -4.3150    0.0000 C   0  0  1  0  0  0  0  0  0  0  0  0
    4.2690   -4.8150    0.0000 C   0  0  2  0  0  0  0  0  0  0  0  0
    3.4030   -3.3150    0.0000 C   0  0  0  0  0  0  0  0  0  0  0  0
    3.4030   -4.3150    0.0000 C   0  0  2  0  0  0  0  0  0  0  0  0
    3.4030   -6.3150    0.0000 C   0  0  0  0  0  0  0  0  0  0  0  0
    3.4030   -7.3150    0.0000 C   0  0  0  0  0  0  0  0  0  0  0  0
   13.8527    3.6793    0.0000 H   0  0  0  0  0  0  0  0  0  0  0  0
   12.2127    0.8495    0.0000 H   0  0  0  0  0  0  0  0  0  0  0  0
   14.2265    1.1338    0.0000 H   0  0  0  0  0  0  0  0  0  0  0  0
   14.6150    1.8312    0.0000 H   0  0  0  0  0  0  0  0  0  0  0  0
   12.7148    0.7047    0.0000 H   0  0  0  0  0  0  0  0  0  0  0  0
   13.5130    0.7108    0.0000 H   0  0  0  0  0  0  0  0  0  0  0  0
   11.6876    3.7698    0.0000 H   0  0  0  0  0  0  0  0  0  0  0  0
   10.8894    3.7822    0.0000 H   0  0  0  0  0  0  0  0  0  0  0  0
   12.9001    4.8332    0.0000 H   0  0  0  0  0  0  0  0  0  0  0  0
   12.5042    4.1414    0.0000 H   0  0  0  0  0  0  0  0  0  0  0  0
   16.4661    5.2353    0.0000 H   0  0  0  0  0  0  0  0  0  0  0  0
   15.3435    2.2556    0.0000 H   0  0  0  0  0  0  0  0  0  0  0  0
   16.1417    2.2494    0.0000 H   0  0  0  0  0  0  0  0  0  0  0  0
    9.7948    1.9961    0.0000 H   0  0  0  0  0  0  0  0  0  0  0  0
   14.1585    1.5909    0.0000 H   0  0  0  0  0  0  0  0  0  0  0  0
   15.0323    1.5178    0.0000 H   0  0  0  0  0  0  0  0  0  0  0  0
   15.1053    2.3916    0.0000 H   0  0  0  0  0  0  0  0  0  0  0  0
   16.8617    2.6614    0.0000 H   0  0  0  0  0  0  0  0  0  0  0  0
   17.2608    3.3527    0.0000 H   0  0  0  0  0  0  0  0  0  0  0  0
   12.8340    3.7387    0.0000 H   0  0  0  0  0  0  0  0  0  0  0  0
   12.2164    4.3611    0.0000 H   0  0  0  0  0  0  0  0  0  0  0  0
   11.5941    3.7435    0.0000 H   0  0  0  0  0  0  0  0  0  0  0  0
   10.1285    3.3545    0.0000 H   0  0  0  0  0  0  0  0  0  0  0  0
    9.7241    2.6663    0.0000 H   0  0  0  0  0  0  0  0  0  0  0  0
   13.9761    5.3748    0.0000 H   0  0  0  0  0  0  0  0  0  0  0  0
   14.6141    2.1055    0.0000 H   0  0  0  0  0  0  0  0  0  0  0  0
   15.4102    1.7380    0.0000 H   0  0  0  0  0  0  0  0  0  0  0  0
   15.7777    2.5341    0.0000 H   0  0  0  0  0  0  0  0  0  0  0  0
   15.4843    6.4587    0.0000 H   0  0  0  0  0  0  0  0  0  0  0  0
   15.1012    5.7583    0.0000 H   0  0  0  0  0  0  0  0  0  0  0  0
   17.7994    4.2419    0.0000 H   0  0  0  0  0  0  0  0  0  0  0  0
   18.1985    4.9332    0.0000 H   0  0  0  0  0  0  0  0  0  0  0  0
   12.2575   -0.1108    0.0000 H   0  0  0  0  0  0  0  0  0  0  0  0
   12.2514    0.6862    0.0000 H   0  0  0  0  0  0  0  0  0  0  0  0
   10.2403    0.5822    0.0000 H   0  0  0  0  0  0  0  0  0  0  0  0
   10.4737   -0.2630    0.0000 H   0  0  0  0  0  0  0  0  0  0  0  0
   11.3189   -0.0295    0.0000 H   0  0  0  0  0  0  0  0  0  0  0  0
   18.1951    5.8060    0.0000 H   0  0  0  0  0  0  0  0  0  0  0  0
   17.7907    6.4942    0.0000 H   0  0  0  0  0  0  0  0  0  0  0  0
   17.6663    7.0133    0.0000 H   0  0  0  0  0  0  0  0  0  0  0  0
   17.4263    7.8566    0.0000 H   0  0  0  0  0  0  0  0  0  0  0  0
   16.5830    7.6166    0.0000 H   0  0  0  0  0  0  0  0  0  0  0  0
   16.6568    7.6178    0.0000 H   0  0  0  0  0  0  0  0  0  0  0  0
   15.8065    7.8316    0.0000 H   0  0  0  0  0  0  0  0  0  0  0  0
   15.5926    6.9813    0.0000 H   0  0  0  0  0  0  0  0  0  0  0  0
    8.5991    1.0650    0.0000 H   0  0  0  0  0  0  0  0  0  0  0  0
   11.6004   -1.1204    0.0000 H   0  0  0  0  0  0  0  0  0  0  0  0
   18.9188    4.0021    0.0000 H   0  0  0  0  0  0  0  0  0  0  0  0
    7.1962    0.8750    0.0000 H   0  0  0  0  0  0  0  0  0  0  0  0
    6.3301    1.9950    0.0000 H   0  0  0  0  0  0  0  0  0  0  0  0
    8.1316    3.6600    0.0000 H   0  0  0  0  0  0  0  0  0  0  0  0
    7.3346    3.6600    0.0000 H   0  0  0  0  0  0  0  0  0  0  0  0
    6.8671    3.3050    0.0000 H   0  0  0  0  0  0  0  0  0  0  0  0
    7.4040   -0.6250    0.0000 H   0  0  0  0  0  0  0  0  0  0  0  0
    5.4641    1.4950    0.0000 H   0  0  0  0  0  0  0  0  0  0  0  0
    6.0010    3.8050    0.0000 H   0  0  0  0  0  0  0  0  0  0  0  0
    6.8671   -1.9350    0.0000 H   0  0  0  0  0  0  0  0  0  0  0  0
    5.4641   -2.1250    0.0000 H   0  0  0  0  0  0  0  0  0  0  0  0
    5.1350    0.3050    0.0000 H   0  0  0  0  0  0  0  0  0  0  0  0
    4.5981   -1.0050    0.0000 H   0  0  0  0  0  0  0  0  0  0  0  0
    8.2700   -1.5050    0.0000 H   0  0  0  0  0  0  0  0  0  0  0  0
    4.5790    0.7220    0.0000 H   0  0  0  0  0  0  0  0  0  0  0  0
    3.7320    0.4950    0.0000 H   0  0  0  0  0  0  0  0  0  0  0  0
    3.9590   -0.3519    0.0000 H   0  0  0  0  0  0  0  0  0  0  0  0
    3.7320   -1.5050    0.0000 H   0  0  0  0  0  0  0  0  0  0  0  0
    5.1350   -2.6950    0.0000 H   0  0  0  0  0  0  0  0  0  0  0  0
    5.1350   -4.9350    0.0000 H   0  0  0  0  0  0  0  0  0  0  0  0
    3.7320   -5.1250    0.0000 H   0  0  0  0  0  0  0  0  0  0  0  0
    3.1909   -2.7324    0.0000 H   0  0  0  0  0  0  0  0  0  0  0  0
    2.7924   -3.4226    0.0000 H   0  0  0  0  0  0  0  0  0  0  0  0
    2.8660   -4.0050    0.0000 H   0  0  0  0  0  0  0  0  0  0  0  0
    6.0010   -5.4350    0.0000 H   0  0  0  0  0  0  0  0  0  0  0  0
    2.0000   -4.5050    0.0000 H   0  0  0  0  0  0  0  0  0  0  0  0
    2.7830   -7.3150    0.0000 H   0  0  0  0  0  0  0  0  0  0  0  0
    3.4030   -7.9350    0.0000 H   0  0  0  0  0  0  0  0  0  0  0  0
    4.0230   -7.3150    0.0000 H   0  0  0  0  0  0  0  0  0  0  0  0
 32  1  1  1  0  0  0
 48  1  1  1  0  0  0
  2 42  1  0  0  0  0
  2112  1  0  0  0  0
  3 45  1  0  0  0  0
  3113  1  0  0  0  0
  4 45  2  0  0  0  0
  5 48  1  0  0  0  0
  5 51  1  0  0  0  0
 49  6  1  6  0  0  0
 53  6  1  1  0  0  0
 50  7  1  1  0  0  0
  7120  1  0  0  0  0
 52  8  1  1  0  0  0
  8121  1  0  0  0  0
  9 53  1  0  0  0  0
  9 56  1  0  0  0  0
 54 10  1  6  0  0  0
 10126  1  0  0  0  0
 55 11  1  6  0  0  0
 59 11  1  1  0  0  0
 57 12  1  1  0  0  0
 12130  1  0  0  0  0
 13 59  1  0  0  0  0
 13 62  1  0  0  0  0
 60 14  1  6  0  0  0
 14137  1  0  0  0  0
 61 15  1  1  0  0  0
 15 64  1  0  0  0  0
 63 16  1  1  0  0  0
 16138  1  0  0  0  0
 17 64  2  0  0  0  0
 18 19  1  0  0  0  0
 18 21  1  0  0  0  0
 18 23  1  0  0  0  0
 18 33  1  1  0  0  0
 19 20  1  0  0  0  0
 19 28  1  0  0  0  0
 19 66  1  6  0  0  0
 20 22  1  0  0  0  0
 20 27  1  0  0  0  0
 20 35  1  1  0  0  0
 21 26  1  0  0  0  0
 21 30  1  0  0  0  0
 21 38  1  6  0  0  0
 22 24  1  0  0  0  0
 22 25  1  0  0  0  0
 22 67  1  6  0  0  0
 23 25  1  0  0  0  0
 23 68  1  0  0  0  0
 23 69  1  0  0  0  0
 24 32  1  0  0  0  0
 24 42  1  0  0  0  0
 24 43  1  1  0  0  0
 25 70  1  0  0  0  0
 25 71  1  0  0  0  0
 26 29  1  0  0  0  0
 26 37  2  0  0  0  0
 27 36  1  0  0  0  0
 27 72  1  0  0  0  0
 27 73  1  0  0  0  0
 28 37  1  0  0  0  0
 28 74  1  0  0  0  0
 28 75  1  0  0  0  0
 29 31  1  0  0  0  0
 29 39  1  0  0  0  0
 29 76  1  1  0  0  0
 30 34  1  0  0  0  0
 30 77  1  0  0  0  0
 30 78  1  0  0  0  0
 31 34  1  0  0  0  0
 31 40  1  0  0  0  0
 31 45  1  1  0  0  0
 32 36  1  0  0  0  0
 32 79  1  0  0  0  0
 33 80  1  0  0  0  0
 33 81  1  0  0  0  0
 33 82  1  0  0  0  0
 34 83  1  0  0  0  0
 34 84  1  0  0  0  0
 35 85  1  0  0  0  0
 35 86  1  0  0  0  0
 35 87  1  0  0  0  0
 36 88  1  0  0  0  0
 36 89  1  0  0  0  0
 37 90  1  0  0  0  0
 38 91  1  0  0  0  0
 38 92  1  0  0  0  0
 38 93  1  0  0  0  0
 39 41  1  0  0  0  0
 39 94  1  0  0  0  0
 39 95  1  0  0  0  0
 40 44  1  0  0  0  0
 40 96  1  0  0  0  0
 40 97  1  0  0  0  0
 41 44  1  0  0  0  0
 41 46  1  0  0  0  0
 41 47  1  0  0  0  0
 42 98  1  0  0  0  0
 42 99  1  0  0  0  0
 43100  1  0  0  0  0
 43101  1  0  0  0  0
 43102  1  0  0  0  0
 44103  1  0  0  0  0
 44104  1  0  0  0  0
 46105  1  0  0  0  0
 46106  1  0  0  0  0
 46107  1  0  0  0  0
 47108  1  0  0  0  0
 47109  1  0  0  0  0
 47110  1  0  0  0  0
 48 49  1  0  0  0  0
 48111  1  0  0  0  0
 49 50  1  0  0  0  0
 49114  1  0  0  0  0
 50 52  1  0  0  0  0
 50115  1  0  0  0  0
 51 52  1  0  0  0  0
 51116  1  0  0  0  0
 51117  1  0  0  0  0
 52118  1  0  0  0  0
 53 54  1  0  0  0  0
 53119  1  0  0  0  0
 54 55  1  0  0  0  0
 54122  1  0  0  0  0
 55 57  1  0  0  0  0
 55123  1  0  0  0  0
 56 57  1  0  0  0  0
 56 58  1  6  0  0  0
 56124  1  0  0  0  0
 57125  1  0  0  0  0
 58127  1  0  0  0  0
 58128  1  0  0  0  0
 58129  1  0  0  0  0
 59 60  1  0  0  0  0
 59131  1  0  0  0  0
 60 61  1  0  0  0  0
 60132  1  0  0  0  0
 61 63  1  0  0  0  0
 61133  1  0  0  0  0
 62 63  1  0  0  0  0
 62134  1  0  0  0  0
 62135  1  0  0  0  0
 63136  1  0  0  0  0
 64 65  1  0  0  0  0
 65139  1  0  0  0  0
 65140  1  0  0  0  0
 65141  1  0  0  0  0
M  END
> <PUBCHEM_COMPOUND_CID>
24866957

> <PUBCHEM_COMPOUND_CANONICALIZED>
1

> <PUBCHEM_CACTVS_COMPLEXITY>
1810

> <PUBCHEM_CACTVS_HBOND_ACCEPTOR>
17

> <PUBCHEM_CACTVS_HBOND_DONOR>
8

> <PUBCHEM_CACTVS_ROTATABLE_BOND>
10

> <PUBCHEM_CACTVS_SUBSKEYS>
AAADcfB8PgAAAAAAAAAAAAAAAAAAAAAAAAA0aNGCAAAAAADAAAAAGgAACAAADxSwgAMCCAAABgCIAiDSCAAAAAAgAAAACAEAAAgREBIAAQAiQAAFgAAPAAPI6PyPgAAAAAAAAADAAAYAADAAAAAAAAAAAA==

> <PUBCHEM_IUPAC_OPENEYE_NAME>
(4aS,6aR,6aS,6bR,8aR,9R,10S,12aR,14bS)-10-[(2S,3R,4S,5S)-3-[(2S,3R,4R,5S,6S)-4-[(2S,3R,4S,5S)-4-acetoxy-3,5-dihydroxy-tetrahydropyran-2-yl]oxy-3,5-dihydroxy-6-methyl-tetrahydropyran-2-yl]oxy-4,5-dihydroxy-tetrahydropyran-2-yl]oxy-9-(hydroxymethyl)-2,2,6a,6b,9,12a-hexamethyl-1,3,4,5,6,6a,7,8,8a,10,11,12,13,14b-tetradecahydropicene-4a-carboxylic acid

> <PUBCHEM_IUPAC_CAS_NAME>
(4aS,6aR,6aS,6bR,8aR,9R,10S,12aR,14bS)-10-[[(2S,3R,4S,5S)-3-[[(2S,3R,4R,5S,6S)-4-[[(2S,3R,4S,5S)-4-acetyloxy-3,5-dihydroxy-2-oxanyl]oxy]-3,5-dihydroxy-6-methyl-2-oxanyl]oxy]-4,5-dihydroxy-2-oxanyl]oxy]-9-(hydroxymethyl)-2,2,6a,6b,9,12a-hexamethyl-1,3,4,5,6,6a,7,8,8a,10,11,12,13,14b-tetradecahydropicene-4a-carboxylic acid

> <PUBCHEM_IUPAC_NAME_MARKUP>
(4<I>a</I><I>S</I>,6<I>a</I><I>R</I>,6<I>a</I><I>S</I>,6<I>b</I><I>R</I>,8<I>a</I><I>R</I>,9<I>R</I>,10<I>S</I>,12<I>a</I><I>R</I>,14<I>b</I><I>S</I>)-10-[(2<I>S</I>,3<I>R</I>,4<I>S</I>,5<I>S</I>)-3-[(2<I>S</I>,3<I>R</I>,4<I>R</I>,5<I>S</I>,6<I>S</I>)-4-[(2<I>S</I>,3<I>R</I>,4<I>S</I>,5<I>S</I>)-4-acetyloxy-3,5-dihydroxyoxan-2-yl]oxy-3,5-dihydroxy-6-methyloxan-2-yl]oxy-4,5-dihydroxyoxan-2-yl]oxy-9-(hydroxymethyl)-2,2,6<I>a</I>,6<I>b</I>,9,12<I>a</I>-hexamethyl-1,3,4,5,6,6<I>a</I>,7,8,8<I>a</I>,10,11,12,13,14<I>b</I>-tetradecahydropicene-4<I>a</I>-carboxylic acid

> <PUBCHEM_IUPAC_NAME>
(4aS,6aR,6aS,6bR,8aR,9R,10S,12aR,14bS)-10-[(2S,3R,4S,5S)-3-[(2S,3R,4R,5S,6S)-4-[(2S,3R,4S,5S)-4-acetyloxy-3,5-dihydroxyoxan-2-yl]oxy-3,5-dihydroxy-6-methyloxan-2-yl]oxy-4,5-dihydroxyoxan-2-yl]oxy-9-(hydroxymethyl)-2,2,6a,6b,9,12a-hexamethyl-1,3,4,5,6,6a,7,8,8a,10,11,12,13,14b-tetradecahydropicene-4a-carboxylic acid

> <PUBCHEM_IUPAC_SYSTEMATIC_NAME>
(4aS,6aR,6aS,6bR,8aR,9R,10S,12aR,14bS)-10-[(2S,3R,4S,5S)-3-[(2S,3R,4R,5S,6S)-4-[(2S,3R,4S,5S)-4-acetyloxy-3,5-bis(oxidanyl)oxan-2-yl]oxy-6-methyl-3,5-bis(oxidanyl)oxan-2-yl]oxy-4,5-bis(oxidanyl)oxan-2-yl]oxy-9-(hydroxymethyl)-2,2,6a,6b,9,12a-hexamethyl-1,3,4,5,6,6a,7,8,8a,10,11,12,13,14b-tetradecahydropicene-4a-carboxylic acid

> <PUBCHEM_IUPAC_TRADITIONAL_NAME>
(4aS,6aR,6aS,6bR,8aR,9R,10S,12aR,14bS)-10-[(2S,3R,4S,5S)-3-[(2S,3R,4R,5S,6S)-4-[(2S,3R,4S,5S)-4-acetoxy-3,5-dihydroxy-tetrahydropyran-2-yl]oxy-3,5-dihydroxy-6-methyl-tetrahydropyran-2-yl]oxy-4,5-dihydroxy-tetrahydropyran-2-yl]oxy-2,2,6a,6b,9,12a-hexamethyl-9-methylol-1,3,4,5,6,6a,7,8,8a,10,11,12,13,14b-tetradecahydropicene-4a-carboxylic acid

> <PUBCHEM_IUPAC_INCHI>
InChI=1S/C48H76O17/c1-23-32(53)37(64-39-34(55)36(62-24(2)50)28(52)21-59-39)35(56)40(61-23)65-38-33(54)27(51)20-60-41(38)63-31-12-13-44(5)29(45(31,6)22-49)11-14-47(8)30(44)10-9-25-26-19-43(3,4)15-17-48(26,42(57)58)18-16-46(25,47)7/h9,23,26-41,49,51-56H,10-22H2,1-8H3,(H,57,58)/t23-,26-,27-,28-,29+,30+,31-,32-,33-,34+,35+,36-,37+,38+,39-,40-,41-,44-,45-,46+,47+,48-/m0/s1

> <PUBCHEM_IUPAC_INCHIKEY>
CHRGNXRMUGUQPZ-XRKAUVRWSA-N

> <PUBCHEM_XLOGP3_AA>
2.7

> <PUBCHEM_EXACT_MASS>
924.50825095

> <PUBCHEM_MOLECULAR_FORMULA>
C48H76O17

> <PUBCHEM_MOLECULAR_WEIGHT>
925.1

> <PUBCHEM_OPENEYE_CAN_SMILES>
CC1C(C(C(C(O1)OC2C(C(COC2OC3CCC4(C(C3(C)CO)CCC5(C4CC=C6C5(CCC7(C6CC(CC7)(C)C)C(=O)O)C)C)C)O)O)O)OC8C(C(C(CO8)O)OC(=O)C)O)O

> <PUBCHEM_OPENEYE_ISO_SMILES>
C[C@H]1[C@@H]([C@H]([C@H]([C@@H](O1)O[C@@H]2[C@H]([C@H](CO[C@H]2O[C@H]3CC[C@]4([C@H]([C@]3(C)CO)CC[C@@]5([C@@H]4CC=C6[C@]5(CC[C@@]7([C@H]6CC(CC7)(C)C)C(=O)O)C)C)C)O)O)O)O[C@H]8[C@@H]([C@H]([C@H](CO8)O)OC(=O)C)O)O

> <PUBCHEM_CACTVS_TPSA>
261

> <PUBCHEM_MONOISOTOPIC_WEIGHT>
924.50825095

> <PUBCHEM_TOTAL_CHARGE>
0

> <PUBCHEM_HEAVY_ATOM_COUNT>
65

> <PUBCHEM_ATOM_DEF_STEREO_COUNT>
22

> <PUBCHEM_ATOM_UDEF_STEREO_COUNT>
0

> <PUBCHEM_BOND_DEF_STEREO_COUNT>
0

> <PUBCHEM_BOND_UDEF_STEREO_COUNT>
0

> <PUBCHEM_ISOTOPIC_ATOM_COUNT>
0

> <PUBCHEM_COMPONENT_COUNT>
1

> <PUBCHEM_CACTVS_TAUTO_COUNT>
-1

> <PUBCHEM_COORDINATE_TYPE>
1
5
255

> <PUBCHEM_BONDANNOTATIONS>
32  1  5
48  1  5
54  10  6
55  11  6
59  11  5
57  12  5
60  14  6
61  15  5
63  16  5
18  33  5
19  66  6
20  35  5
21  38  6
22  67  6
24  43  5
29  76  5
31  45  5
56  58  6
49  6  6
53  6  5
50  7  5
52  8  5

$$$$
