11593218
  -OEChem-01142201292D

142148  0     1  0  0  0  0  0999 V2000
   12.9292    0.0828    0.0000 O   0  0  0  0  0  0  0  0  0  0  0  0
   13.7953    1.5828    0.0000 O   0  0  0  0  0  0  0  0  0  0  0  0
   11.1972    0.0828    0.0000 O   0  0  0  0  0  0  0  0  0  0  0  0
   22.1304   -0.1047    0.0000 O   0  0  0  0  0  0  0  0  0  0  0  0
   22.1371    1.6273    0.0000 O   0  0  0  0  0  0  0  0  0  0  0  0
   12.9292    2.0828    0.0000 O   0  0  0  0  0  0  0  0  0  0  0  0
   11.1972    3.0828    0.0000 O   0  0  0  0  0  0  0  0  0  0  0  0
    9.4651    2.0828    0.0000 O   0  0  0  0  0  0  0  0  0  0  0  0
    9.4651   -0.9172    0.0000 O   0  0  0  0  0  0  0  0  0  0  0  0
    7.7331   -0.9172    0.0000 O   0  0  0  0  0  0  0  0  0  0  0  0
    9.4651   -2.9172    0.0000 O   0  0  0  0  0  0  0  0  0  0  0  0
    7.7331   -3.9172    0.0000 O   0  0  0  0  0  0  0  0  0  0  0  0
    6.0010   -2.9172    0.0000 O   0  0  0  0  0  0  0  0  0  0  0  0
    6.0010    0.0828    0.0000 O   0  0  0  0  0  0  0  0  0  0  0  0
    5.1350   -1.4172    0.0000 O   0  0  0  0  0  0  0  0  0  0  0  0
    4.2690   -3.9172    0.0000 O   0  0  0  0  0  0  0  0  0  0  0  0
    2.5369   -2.9172    0.0000 O   0  0  0  0  0  0  0  0  0  0  0  0
    2.5369   -0.9172    0.0000 O   0  0  0  0  0  0  0  0  0  0  0  0
   16.3933    1.0828    0.0000 C   0  0  1  0  0  0  0  0  0  0  0  0
   17.2873    1.6175    0.0000 C   0  0  1  0  0  0  0  0  0  0  0  0
   16.3933    0.0828    0.0000 C   0  0  1  0  0  0  0  0  0  0  0  0
   18.1934    1.1036    0.0000 C   0  0  1  0  0  0  0  0  0  0  0  0
   15.5273   -0.4172    0.0000 C   0  0  2  0  0  0  0  0  0  0  0  0
   14.6613    0.0828    0.0000 C   0  0  1  0  0  0  0  0  0  0  0  0
   15.5273    1.5828    0.0000 C   0  0  0  0  0  0  0  0  0  0  0  0
   19.1371    1.6389    0.0000 C   0  0  2  0  0  0  0  0  0  0  0  0
   17.2873   -0.4518    0.0000 C   0  0  0  0  0  0  0  0  0  0  0  0
   18.1934    0.0620    0.0000 C   0  0  0  0  0  0  0  0  0  0  0  0
   17.2622    2.7022    0.0000 C   0  0  0  0  0  0  0  0  0  0  0  0
   14.6613    1.0828    0.0000 C   0  0  0  0  0  0  0  0  0  0  0  0
   15.3181   -1.3890    0.0000 C   0  0  1  0  0  0  0  0  0  0  0  0
   19.1371    2.7239    0.0000 C   0  0  1  0  0  0  0  0  0  0  0  0
   13.9243   -0.5843    0.0000 C   0  0  0  0  0  0  0  0  0  0  0  0
   16.0513    2.0225    0.0000 C   0  0  0  0  0  0  0  0  0  0  0  0
   16.6386    2.3785    0.0000 C   0  0  0  0  0  0  0  0  0  0  0  0
   18.1934    3.2591    0.0000 C   0  0  0  0  0  0  0  0  0  0  0  0
   14.3294   -1.4921    0.0000 C   0  0  0  0  0  0  0  0  0  0  0  0
   20.1371    1.6350    0.0000 C   0  0  0  0  0  0  0  0  0  0  0  0
   19.6338    0.7709    0.0000 C   0  0  0  0  0  0  0  0  0  0  0  0
   13.7953    0.5828    0.0000 C   0  0  0  0  0  0  0  0  0  0  0  0
   15.9860   -2.1333    0.0000 C   0  0  0  0  0  0  0  0  0  0  0  0
   20.0012    3.2272    0.0000 C   0  0  0  0  0  0  0  0  0  0  0  0
   20.6338    0.7671    0.0000 C   0  0  0  0  0  0  0  0  0  0  0  0
   15.6753   -3.0838    0.0000 C   0  0  0  0  0  0  0  0  0  0  0  0
   19.9974    4.2272    0.0000 C   0  0  0  0  0  0  0  0  0  0  0  0
   16.9645   -1.9271    0.0000 C   0  0  0  0  0  0  0  0  0  0  0  0
   20.8692    2.7305    0.0000 C   0  0  0  0  0  0  0  0  0  0  0  0
   12.0632    0.5828    0.0000 C   0  0  2  0  0  0  0  0  0  0  0  0
   21.6338    0.7632    0.0000 C   0  0  0  0  0  0  0  0  0  0  0  0
   12.0632    1.5828    0.0000 C   0  0  1  0  0  0  0  0  0  0  0  0
   11.1972    2.0828    0.0000 C   0  0  2  0  0  0  0  0  0  0  0  0
   10.3312    0.5828    0.0000 C   0  0  1  0  0  0  0  0  0  0  0  0
   10.3312    1.5828    0.0000 C   0  0  1  0  0  0  0  0  0  0  0  0
    9.4651    0.0828    0.0000 C   0  0  0  0  0  0  0  0  0  0  0  0
    8.5991   -1.4172    0.0000 C   0  0  2  0  0  0  0  0  0  0  0  0
    8.5991   -2.4172    0.0000 C   0  0  1  0  0  0  0  0  0  0  0  0
    7.7331   -2.9172    0.0000 C   0  0  2  0  0  0  0  0  0  0  0  0
    6.8671   -1.4172    0.0000 C   0  0  1  0  0  0  0  0  0  0  0  0
    6.8671   -2.4172    0.0000 C   0  0  1  0  0  0  0  0  0  0  0  0
    6.0010   -0.9172    0.0000 C   0  0  0  0  0  0  0  0  0  0  0  0
    5.1350   -2.4172    0.0000 C   0  0  2  0  0  0  0  0  0  0  0  0
    4.2690   -2.9172    0.0000 C   0  0  1  0  0  0  0  0  0  0  0  0
    3.4030   -2.4172    0.0000 C   0  0  1  0  0  0  0  0  0  0  0  0
    4.2690   -0.9172    0.0000 C   0  0  2  0  0  0  0  0  0  0  0  0
    3.4030   -1.4172    0.0000 C   0  0  2  0  0  0  0  0  0  0  0  0
    4.2690    0.0828    0.0000 C   0  0  0  0  0  0  0  0  0  0  0  0
   16.3868   -0.7672    0.0000 H   0  0  0  0  0  0  0  0  0  0  0  0
   18.9278    0.6758    0.0000 H   0  0  0  0  0  0  0  0  0  0  0  0
   16.2143   -0.9177    0.0000 H   0  0  0  0  0  0  0  0  0  0  0  0
   15.9258    2.0578    0.0000 H   0  0  0  0  0  0  0  0  0  0  0  0
   15.1288    2.0578    0.0000 H   0  0  0  0  0  0  0  0  0  0  0  0
   16.8827   -0.9216    0.0000 H   0  0  0  0  0  0  0  0  0  0  0  0
   17.6809   -0.9309    0.0000 H   0  0  0  0  0  0  0  0  0  0  0  0
   18.4024   -0.5217    0.0000 H   0  0  0  0  0  0  0  0  0  0  0  0
   18.8042    0.1681    0.0000 H   0  0  0  0  0  0  0  0  0  0  0  0
   17.0397    3.2809    0.0000 H   0  0  0  0  0  0  0  0  0  0  0  0
   16.6540    2.5820    0.0000 H   0  0  0  0  0  0  0  0  0  0  0  0
   14.4492    1.6654    0.0000 H   0  0  0  0  0  0  0  0  0  0  0  0
   14.0507    0.9752    0.0000 H   0  0  0  0  0  0  0  0  0  0  0  0
   15.9173   -1.2298    0.0000 H   0  0  0  0  0  0  0  0  0  0  0  0
   19.6747    2.4149    0.0000 H   0  0  0  0  0  0  0  0  0  0  0  0
   13.5588   -0.0834    0.0000 H   0  0  0  0  0  0  0  0  0  0  0  0
   13.3878   -0.8950    0.0000 H   0  0  0  0  0  0  0  0  0  0  0  0
   16.6339    2.2346    0.0000 H   0  0  0  0  0  0  0  0  0  0  0  0
   15.8393    2.6051    0.0000 H   0  0  0  0  0  0  0  0  0  0  0  0
   15.4687    1.8104    0.0000 H   0  0  0  0  0  0  0  0  0  0  0  0
   17.1105    2.7807    0.0000 H   0  0  0  0  0  0  0  0  0  0  0  0
   16.2364    2.8504    0.0000 H   0  0  0  0  0  0  0  0  0  0  0  0
   16.1667    1.9764    0.0000 H   0  0  0  0  0  0  0  0  0  0  0  0
   18.5870    3.7381    0.0000 H   0  0  0  0  0  0  0  0  0  0  0  0
   17.7888    3.7289    0.0000 H   0  0  0  0  0  0  0  0  0  0  0  0
   13.7398   -1.6838    0.0000 H   0  0  0  0  0  0  0  0  0  0  0  0
   14.4581   -2.0986    0.0000 H   0  0  0  0  0  0  0  0  0  0  0  0
   20.7206    1.8448    0.0000 H   0  0  0  0  0  0  0  0  0  0  0  0
   20.0318    2.2460    0.0000 H   0  0  0  0  0  0  0  0  0  0  0  0
   19.0957    0.4630    0.0000 H   0  0  0  0  0  0  0  0  0  0  0  0
   19.9417    0.2328    0.0000 H   0  0  0  0  0  0  0  0  0  0  0  0
   20.1719    1.0788    0.0000 H   0  0  0  0  0  0  0  0  0  0  0  0
   20.0504    0.5573    0.0000 H   0  0  0  0  0  0  0  0  0  0  0  0
   20.7391    0.1561    0.0000 H   0  0  0  0  0  0  0  0  0  0  0  0
   15.0860   -2.8912    0.0000 H   0  0  0  0  0  0  0  0  0  0  0  0
   15.4827   -3.6732    0.0000 H   0  0  0  0  0  0  0  0  0  0  0  0
   16.2646   -3.2764    0.0000 H   0  0  0  0  0  0  0  0  0  0  0  0
   20.6174    4.2296    0.0000 H   0  0  0  0  0  0  0  0  0  0  0  0
   19.9950    4.8472    0.0000 H   0  0  0  0  0  0  0  0  0  0  0  0
   19.3774    4.2248    0.0000 H   0  0  0  0  0  0  0  0  0  0  0  0
   17.3785   -2.3886    0.0000 H   0  0  0  0  0  0  0  0  0  0  0  0
   17.1571   -1.3378    0.0000 H   0  0  0  0  0  0  0  0  0  0  0  0
   20.8716    2.1105    0.0000 H   0  0  0  0  0  0  0  0  0  0  0  0
   21.4049    3.0426    0.0000 H   0  0  0  0  0  0  0  0  0  0  0  0
   12.6002    0.8928    0.0000 H   0  0  0  0  0  0  0  0  0  0  0  0
   12.0632    2.2028    0.0000 H   0  0  0  0  0  0  0  0  0  0  0  0
   10.6603    2.3928    0.0000 H   0  0  0  0  0  0  0  0  0  0  0  0
   22.7504   -0.1071    0.0000 H   0  0  0  0  0  0  0  0  0  0  0  0
   10.3312   -0.0372    0.0000 H   0  0  0  0  0  0  0  0  0  0  0  0
    9.7942    1.2728    0.0000 H   0  0  0  0  0  0  0  0  0  0  0  0
   12.9292    2.7028    0.0000 H   0  0  0  0  0  0  0  0  0  0  0  0
    9.2531    0.6654    0.0000 H   0  0  0  0  0  0  0  0  0  0  0  0
    8.8546   -0.0248    0.0000 H   0  0  0  0  0  0  0  0  0  0  0  0
   11.7341    3.3928    0.0000 H   0  0  0  0  0  0  0  0  0  0  0  0
    9.4651    2.7028    0.0000 H   0  0  0  0  0  0  0  0  0  0  0  0
    8.5991   -0.7972    0.0000 H   0  0  0  0  0  0  0  0  0  0  0  0
    8.5991   -3.0372    0.0000 H   0  0  0  0  0  0  0  0  0  0  0  0
    7.1962   -3.2272    0.0000 H   0  0  0  0  0  0  0  0  0  0  0  0
    6.8671   -0.7972    0.0000 H   0  0  0  0  0  0  0  0  0  0  0  0
    6.3301   -2.1072    0.0000 H   0  0  0  0  0  0  0  0  0  0  0  0
   10.0021   -2.6072    0.0000 H   0  0  0  0  0  0  0  0  0  0  0  0
    5.3905   -0.8095    0.0000 H   0  0  0  0  0  0  0  0  0  0  0  0
    5.7890   -1.4998    0.0000 H   0  0  0  0  0  0  0  0  0  0  0  0
    8.2700   -4.2272    0.0000 H   0  0  0  0  0  0  0  0  0  0  0  0
    5.1350   -3.0372    0.0000 H   0  0  0  0  0  0  0  0  0  0  0  0
    3.7320   -3.2272    0.0000 H   0  0  0  0  0  0  0  0  0  0  0  0
    6.5380    0.3928    0.0000 H   0  0  0  0  0  0  0  0  0  0  0  0
    2.8660   -2.1072    0.0000 H   0  0  0  0  0  0  0  0  0  0  0  0
    4.8059   -0.6072    0.0000 H   0  0  0  0  0  0  0  0  0  0  0  0
    3.4030   -0.7972    0.0000 H   0  0  0  0  0  0  0  0  0  0  0  0
    3.7320   -4.2272    0.0000 H   0  0  0  0  0  0  0  0  0  0  0  0
    4.8890    0.0828    0.0000 H   0  0  0  0  0  0  0  0  0  0  0  0
    4.2690    0.7028    0.0000 H   0  0  0  0  0  0  0  0  0  0  0  0
    3.6490    0.0828    0.0000 H   0  0  0  0  0  0  0  0  0  0  0  0
    2.0000   -2.6072    0.0000 H   0  0  0  0  0  0  0  0  0  0  0  0
    2.5369   -0.2972    0.0000 H   0  0  0  0  0  0  0  0  0  0  0  0
  1 40  1  0  0  0  0
 48  1  1  6  0  0  0
  2 40  2  0  0  0  0
  3 48  1  0  0  0  0
  3 52  1  0  0  0  0
  4 49  1  0  0  0  0
  4114  1  0  0  0  0
  5 49  2  0  0  0  0
 50  6  1  1  0  0  0
  6117  1  0  0  0  0
 51  7  1  6  0  0  0
  7120  1  0  0  0  0
 53  8  1  1  0  0  0
  8121  1  0  0  0  0
  9 54  1  0  0  0  0
 55  9  1  1  0  0  0
 10 55  1  0  0  0  0
 10 58  1  0  0  0  0
 56 11  1  6  0  0  0
 11127  1  0  0  0  0
 57 12  1  1  0  0  0
 12130  1  0  0  0  0
 59 13  1  6  0  0  0
 61 13  1  1  0  0  0
 14 60  1  0  0  0  0
 14133  1  0  0  0  0
 15 61  1  0  0  0  0
 15 64  1  0  0  0  0
 62 16  1  6  0  0  0
 16137  1  0  0  0  0
 63 17  1  6  0  0  0
 17141  1  0  0  0  0
 65 18  1  1  0  0  0
 18142  1  0  0  0  0
 19 20  1  0  0  0  0
 19 21  1  0  0  0  0
 19 25  1  0  0  0  0
 19 34  1  6  0  0  0
 20 22  1  0  0  0  0
 20 29  1  0  0  0  0
 20 35  1  1  0  0  0
 21 23  1  0  0  0  0
 21 27  1  0  0  0  0
 21 67  1  1  0  0  0
 22 26  1  0  0  0  0
 22 28  1  0  0  0  0
 22 68  1  6  0  0  0
 23 24  1  0  0  0  0
 23 31  1  0  0  0  0
 23 69  1  6  0  0  0
 24 30  1  0  0  0  0
 24 33  1  0  0  0  0
 24 40  1  1  0  0  0
 25 30  1  0  0  0  0
 25 70  1  0  0  0  0
 25 71  1  0  0  0  0
 26 32  1  0  0  0  0
 26 38  1  0  0  0  0
 26 39  1  1  0  0  0
 27 28  1  0  0  0  0
 27 72  1  0  0  0  0
 27 73  1  0  0  0  0
 28 74  1  0  0  0  0
 28 75  1  0  0  0  0
 29 36  1  0  0  0  0
 29 76  1  0  0  0  0
 29 77  1  0  0  0  0
 30 78  1  0  0  0  0
 30 79  1  0  0  0  0
 31 37  1  0  0  0  0
 31 41  1  6  0  0  0
 31 80  1  0  0  0  0
 32 36  1  0  0  0  0
 32 42  1  1  0  0  0
 32 81  1  0  0  0  0
 33 37  1  0  0  0  0
 33 82  1  0  0  0  0
 33 83  1  0  0  0  0
 34 84  1  0  0  0  0
 34 85  1  0  0  0  0
 34 86  1  0  0  0  0
 35 87  1  0  0  0  0
 35 88  1  0  0  0  0
 35 89  1  0  0  0  0
 36 90  1  0  0  0  0
 36 91  1  0  0  0  0
 37 92  1  0  0  0  0
 37 93  1  0  0  0  0
 38 43  1  0  0  0  0
 38 94  1  0  0  0  0
 38 95  1  0  0  0  0
 39 96  1  0  0  0  0
 39 97  1  0  0  0  0
 39 98  1  0  0  0  0
 41 44  1  0  0  0  0
 41 46  2  0  0  0  0
 42 45  1  0  0  0  0
 42 47  2  0  0  0  0
 43 49  1  0  0  0  0
 43 99  1  0  0  0  0
 43100  1  0  0  0  0
 44101  1  0  0  0  0
 44102  1  0  0  0  0
 44103  1  0  0  0  0
 45104  1  0  0  0  0
 45105  1  0  0  0  0
 45106  1  0  0  0  0
 46107  1  0  0  0  0
 46108  1  0  0  0  0
 47109  1  0  0  0  0
 47110  1  0  0  0  0
 48 50  1  0  0  0  0
 48111  1  0  0  0  0
 50 51  1  0  0  0  0
 50112  1  0  0  0  0
 51 53  1  0  0  0  0
 51113  1  0  0  0  0
 52 53  1  0  0  0  0
 52 54  1  6  0  0  0
 52115  1  0  0  0  0
 53116  1  0  0  0  0
 54118  1  0  0  0  0
 54119  1  0  0  0  0
 55 56  1  0  0  0  0
 55122  1  0  0  0  0
 56 57  1  0  0  0  0
 56123  1  0  0  0  0
 57 59  1  0  0  0  0
 57124  1  0  0  0  0
 58 59  1  0  0  0  0
 58 60  1  1  0  0  0
 58125  1  0  0  0  0
 59126  1  0  0  0  0
 60128  1  0  0  0  0
 60129  1  0  0  0  0
 61 62  1  0  0  0  0
 61131  1  0  0  0  0
 62 63  1  0  0  0  0
 62132  1  0  0  0  0
 63 65  1  0  0  0  0
 63134  1  0  0  0  0
 64 65  1  0  0  0  0
 64 66  1  6  0  0  0
 64135  1  0  0  0  0
 65136  1  0  0  0  0
 66138  1  0  0  0  0
 66139  1  0  0  0  0
 66140  1  0  0  0  0
M  END
> <PUBCHEM_COMPOUND_CID>
11593218

> <PUBCHEM_COMPOUND_CANONICALIZED>
1

> <PUBCHEM_CACTVS_COMPLEXITY>
1800

> <PUBCHEM_CACTVS_HBOND_ACCEPTOR>
18

> <PUBCHEM_CACTVS_HBOND_DONOR>
10

> <PUBCHEM_CACTVS_ROTATABLE_BOND>
14

> <PUBCHEM_CACTVS_SUBSKEYS>
AAADcfB8PgAAAAAAAAAAAAAAAAAAAYAAAAA0aNECAAAAAGDAAAAAGgAACAAADxSwgAMCCAAABgCIAgDSCAAAAAAgAAAAAAEAAAgREBIAAQAiQAAFgAAHAAHI6PyPgAAAAAAAAACAAAQAACAAAQAACAAAAA==

> <PUBCHEM_IUPAC_OPENEYE_NAME>
3-[(3S,4S,5R,8R,9R,10R,13S,14R,15R)-13-[(2S,3R,4S,5S,6R)-6-[[(2R,3R,4R,5S,6R)-3,4-dihydroxy-6-(hydroxymethyl)-5-[(2S,3R,4R,5R,6S)-3,4,5-trihydroxy-6-methyl-tetrahydropyran-2-yl]oxy-tetrahydropyran-2-yl]oxymethyl]-3,4,5-trihydroxy-tetrahydropyran-2-yl]oxycarbonyl-3,15-diisopropenyl-4,9,10-trimethyl-2,3,5,6,7,8,11,12,14,15,16,17-dodecahydro-1H-cyclopenta[a]phenanthren-4-yl]propanoic acid

> <PUBCHEM_IUPAC_CAS_NAME>
3-[(3S,4S,5R,8R,9R,10R,13S,14R,15R)-13-[[(2S,3R,4S,5S,6R)-6-[[(2R,3R,4R,5S,6R)-3,4-dihydroxy-6-(hydroxymethyl)-5-[[(2S,3R,4R,5R,6S)-3,4,5-trihydroxy-6-methyl-2-oxanyl]oxy]-2-oxanyl]oxymethyl]-3,4,5-trihydroxy-2-oxanyl]oxy-oxomethyl]-4,9,10-trimethyl-3,15-bis(1-methylethenyl)-2,3,5,6,7,8,11,12,14,15,16,17-dodecahydro-1H-cyclopenta[a]phenanthren-4-yl]propanoic acid

> <PUBCHEM_IUPAC_NAME_MARKUP>
3-[(3<I>S</I>,4<I>S</I>,5<I>R</I>,8<I>R</I>,9<I>R</I>,10<I>R</I>,13<I>S</I>,14<I>R</I>,15<I>R</I>)-13-[(2<I>S</I>,3<I>R</I>,4<I>S</I>,5<I>S</I>,6<I>R</I>)-6-[[(2<I>R</I>,3<I>R</I>,4<I>R</I>,5<I>S</I>,6<I>R</I>)-3,4-dihydroxy-6-(hydroxymethyl)-5-[(2<I>S</I>,3<I>R</I>,4<I>R</I>,5<I>R</I>,6<I>S</I>)-3,4,5-trihydroxy-6-methyloxan-2-yl]oxyoxan-2-yl]oxymethyl]-3,4,5-trihydroxyoxan-2-yl]oxycarbonyl-4,9,10-trimethyl-3,15-bis(prop-1-en-2-yl)-2,3,5,6,7,8,11,12,14,15,16,17-dodecahydro-1<I>H</I>-cyclopenta[a]phenanthren-4-yl]propanoic acid

> <PUBCHEM_IUPAC_NAME>
3-[(3S,4S,5R,8R,9R,10R,13S,14R,15R)-13-[(2S,3R,4S,5S,6R)-6-[[(2R,3R,4R,5S,6R)-3,4-dihydroxy-6-(hydroxymethyl)-5-[(2S,3R,4R,5R,6S)-3,4,5-trihydroxy-6-methyloxan-2-yl]oxyoxan-2-yl]oxymethyl]-3,4,5-trihydroxyoxan-2-yl]oxycarbonyl-4,9,10-trimethyl-3,15-bis(prop-1-en-2-yl)-2,3,5,6,7,8,11,12,14,15,16,17-dodecahydro-1H-cyclopenta[a]phenanthren-4-yl]propanoic acid

> <PUBCHEM_IUPAC_SYSTEMATIC_NAME>
3-[(3S,4S,5R,8R,9R,10R,13S,14R,15R)-13-[(2S,3R,4S,5S,6R)-6-[[(2R,3R,4R,5S,6R)-6-(hydroxymethyl)-5-[(2S,3R,4R,5R,6S)-6-methyl-3,4,5-tris(oxidanyl)oxan-2-yl]oxy-3,4-bis(oxidanyl)oxan-2-yl]oxymethyl]-3,4,5-tris(oxidanyl)oxan-2-yl]oxycarbonyl-4,9,10-trimethyl-3,15-bis(prop-1-en-2-yl)-2,3,5,6,7,8,11,12,14,15,16,17-dodecahydro-1H-cyclopenta[a]phenanthren-4-yl]propanoic acid

> <PUBCHEM_IUPAC_TRADITIONAL_NAME>
3-[(3S,4S,5R,8R,9R,10R,13S,14R,15R)-13-[(2S,3R,4S,5S,6R)-6-[[(2R,3R,4R,5S,6R)-3,4-dihydroxy-6-methylol-5-[(2S,3R,4R,5R,6S)-3,4,5-trihydroxy-6-methyl-tetrahydropyran-2-yl]oxy-tetrahydropyran-2-yl]oxymethyl]-3,4,5-trihydroxy-tetrahydropyran-2-yl]oxycarbonyl-3,15-diisopropenyl-4,9,10-trimethyl-2,3,5,6,7,8,11,12,14,15,16,17-dodecahydro-1H-cyclopenta[a]phenanthren-4-yl]propionic acid

> <PUBCHEM_IUPAC_INCHI>
InChI=1S/C48H76O18/c1-21(2)24-11-16-48(18-17-46(7)26(31(24)48)9-10-29-45(6,14-13-30(50)51)25(22(3)4)12-15-47(29,46)8)44(60)66-43-38(58)35(55)33(53)28(64-43)20-61-41-39(59)36(56)40(27(19-49)63-41)65-42-37(57)34(54)32(52)23(5)62-42/h23-29,31-43,49,52-59H,1,3,9-20H2,2,4-8H3,(H,50,51)/t23-,24-,25-,26+,27+,28+,29+,31+,32-,33+,34+,35-,36+,37+,38+,39+,40+,41+,42-,43-,45-,46+,47+,48-/m0/s1

> <PUBCHEM_IUPAC_INCHIKEY>
UPYSQKFKPGNSIY-KFVDOPSOSA-N

> <PUBCHEM_XLOGP3_AA>
2.7

> <PUBCHEM_EXACT_MASS>
940.50316557

> <PUBCHEM_MOLECULAR_FORMULA>
C48H76O18

> <PUBCHEM_MOLECULAR_WEIGHT>
941.1

> <PUBCHEM_OPENEYE_CAN_SMILES>
CC1C(C(C(C(O1)OC2C(OC(C(C2O)O)OCC3C(C(C(C(O3)OC(=O)C45CCC(C4C6CCC7C(C6(CC5)C)(CCC(C7(C)CCC(=O)O)C(=C)C)C)C(=C)C)O)O)O)CO)O)O)O

> <PUBCHEM_OPENEYE_ISO_SMILES>
C[C@H]1[C@@H]([C@H]([C@H]([C@@H](O1)O[C@@H]2[C@H](O[C@H]([C@@H]([C@H]2O)O)OC[C@@H]3[C@H]([C@@H]([C@H]([C@@H](O3)OC(=O)[C@]45CC[C@H]([C@@H]4[C@H]6CC[C@H]7[C@]([C@@]6(CC5)C)(CC[C@H]([C@]7(C)CCC(=O)O)C(=C)C)C)C(=C)C)O)O)O)CO)O)O)O

> <PUBCHEM_CACTVS_TPSA>
292

> <PUBCHEM_MONOISOTOPIC_WEIGHT>
940.50316557

> <PUBCHEM_TOTAL_CHARGE>
0

> <PUBCHEM_HEAVY_ATOM_COUNT>
66

> <PUBCHEM_ATOM_DEF_STEREO_COUNT>
24

> <PUBCHEM_ATOM_UDEF_STEREO_COUNT>
0

> <PUBCHEM_BOND_DEF_STEREO_COUNT>
0

> <PUBCHEM_BOND_UDEF_STEREO_COUNT>
0

> <PUBCHEM_ISOTOPIC_ATOM_COUNT>
0

> <PUBCHEM_COMPONENT_COUNT>
1

> <PUBCHEM_CACTVS_TAUTO_COUNT>
-1

> <PUBCHEM_COORDINATE_TYPE>
1
5
255

> <PUBCHEM_BONDANNOTATIONS>
48  1  6
56  11  6
57  12  5
59  13  6
61  13  5
62  16  6
63  17  6
65  18  5
19  34  6
20  35  5
21  67  5
22  68  6
23  69  6
24  40  5
26  39  5
31  41  6
32  42  5
52  54  6
58  60  5
50  6  5
64  66  6
51  7  6
53  8  5
55  9  5

$$$$
