100945367
  -OEChem-01142202302D

 99105  0     1  0  0  0  0  0999 V2000
    6.0682    1.2451    0.0000 O   0  0  0  0  0  0  0  0  0  0  0  0
    7.8003    3.2451    0.0000 O   0  0  0  0  0  0  0  0  0  0  0  0
   10.5789   -0.6532    0.0000 O   0  0  0  0  0  0  0  0  0  0  0  0
    9.5133   -3.0749    0.0000 O   0  0  0  0  0  0  0  0  0  0  0  0
    4.3198    4.2797    0.0000 O   0  0  0  0  0  0  0  0  0  0  0  0
   10.3984    1.7451    0.0000 O   0  0  0  0  0  0  0  0  0  0  0  0
    5.7019   -1.3862    0.0000 O   0  0  0  0  0  0  0  0  0  0  0  0
    9.5323    0.2451    0.0000 O   0  0  0  0  0  0  0  0  0  0  0  0
    2.5381    1.2210    0.0000 O   0  0  0  0  0  0  0  0  0  0  0  0
    5.1866    0.0694    0.0000 O   0  0  0  0  0  0  0  0  0  0  0  0
    6.8664   -2.8465    0.0000 O   0  0  0  0  0  0  0  0  0  0  0  0
   13.1441   -3.0376    0.0000 O   0  0  0  0  0  0  0  0  0  0  0  0
    6.9343    4.7451    0.0000 O   0  0  0  0  0  0  0  0  0  0  0  0
    7.0484    0.8000    0.0000 O   0  0  0  0  0  0  0  0  0  0  0  0
   13.9451    0.4104    0.0000 O   0  0  0  0  0  0  0  0  0  0  0  0
   10.7830   -4.2530    0.0000 O   0  0  0  0  0  0  0  0  0  0  0  0
   11.2644    4.2451    0.0000 O   0  0  0  0  0  0  0  0  0  0  0  0
    9.5323    7.2451    0.0000 O   0  0  0  0  0  0  0  0  0  0  0  0
   11.2644    6.2451    0.0000 O   0  0  0  0  0  0  0  0  0  0  0  0
    6.4979   -5.0515    0.0000 O   0  0  0  0  0  0  0  0  0  0  0  0
    9.0372   -7.4077    0.0000 O   0  0  0  0  0  0  0  0  0  0  0  0
    7.0874   -6.9626    0.0000 O   0  0  0  0  0  0  0  0  0  0  0  0
    6.9343    1.7451    0.0000 C   0  0  2  0  0  0  0  0  0  0  0  0
    7.8003    1.2451    0.0000 C   0  0  3  0  0  0  0  0  0  0  0  0
    6.9343    2.7451    0.0000 C   0  0  1  0  0  0  0  0  0  0  0  0
    6.0682    3.2451    0.0000 C   0  0  0  0  0  0  0  0  0  0  0  0
    7.8003    0.2451    0.0000 C   0  0  0  0  0  0  0  0  0  0  0  0
    8.6663    1.7451    0.0000 C   0  0  0  0  0  0  0  0  0  0  0  0
    5.2022    2.7451    0.0000 C   0  0  0  0  0  0  0  0  0  0  0  0
    5.2022    1.7451    0.0000 C   0  0  0  0  0  0  0  0  0  0  0  0
    9.8987   -1.3862    0.0000 C   0  0  2  0  0  0  0  0  0  0  0  0
    8.7013   -0.1888    0.0000 C   0  0  0  0  0  0  0  0  0  0  0  0
    8.9238   -1.1637    0.0000 C   0  0  0  0  0  0  0  0  0  0  0  0
   10.1935   -2.3418    0.0000 C   0  0  1  0  0  0  0  0  0  0  0  0
    6.8993   -0.1888    0.0000 C   0  0  0  0  0  0  0  0  0  0  0  0
   11.1684   -2.5643    0.0000 C   0  0  0  0  0  0  0  0  0  0  0  0
    4.3083    3.2798    0.0000 C   0  0  0  0  0  0  0  0  0  0  0  0
    4.3083    1.2104    0.0000 C   0  0  0  0  0  0  0  0  0  0  0  0
    9.5323    1.2451    0.0000 C   0  0  0  0  0  0  0  0  0  0  0  0
   11.8486   -1.8313    0.0000 C   0  0  0  0  0  0  0  0  0  0  0  0
    8.3003   -1.9456    0.0000 C   0  0  0  0  0  0  0  0  0  0  0  0
    6.6768   -1.1637    0.0000 C   0  0  0  0  0  0  0  0  0  0  0  0
   11.5538   -0.8757    0.0000 C   0  0  0  0  0  0  0  0  0  0  0  0
    3.4022    2.7659    0.0000 C   0  0  0  0  0  0  0  0  0  0  0  0
    7.3003   -1.9456    0.0000 C   0  0  0  0  0  0  0  0  0  0  0  0
    3.4022    1.7243    0.0000 C   0  0  0  0  0  0  0  0  0  0  0  0
    7.8003    4.2451    0.0000 C   0  0  0  0  0  0  0  0  0  0  0  0
    6.1175    0.4347    0.0000 C   0  0  0  0  0  0  0  0  0  0  0  0
   12.8604   -2.0787    0.0000 C   0  0  0  0  0  0  0  0  0  0  0  0
   12.2505   -0.1013    0.0000 C   0  0  0  0  0  0  0  0  0  0  0  0
    8.6663    4.7451    0.0000 C   0  0  0  0  0  0  0  0  0  0  0  0
   13.5748   -1.3206    0.0000 C   0  0  0  0  0  0  0  0  0  0  0  0
   13.2677   -0.3253    0.0000 C   0  0  0  0  0  0  0  0  0  0  0  0
    9.8081   -4.0304    0.0000 C   0  0  0  0  0  0  0  0  0  0  0  0
    8.6663    5.7451    0.0000 C   0  0  0  0  0  0  0  0  0  0  0  0
    9.5323    4.2451    0.0000 C   0  0  0  0  0  0  0  0  0  0  0  0
    9.1279   -4.7635    0.0000 C   0  0  0  0  0  0  0  0  0  0  0  0
   10.3984    4.7451    0.0000 C   0  0  0  0  0  0  0  0  0  0  0  0
    9.5323    6.2451    0.0000 C   0  0  0  0  0  0  0  0  0  0  0  0
   10.3984    5.7451    0.0000 C   0  0  0  0  0  0  0  0  0  0  0  0
    9.4226   -5.7191    0.0000 C   0  0  0  0  0  0  0  0  0  0  0  0
    8.1530   -4.5410    0.0000 C   0  0  0  0  0  0  0  0  0  0  0  0
    7.4728   -5.2740    0.0000 C   0  0  0  0  0  0  0  0  0  0  0  0
    8.7425   -6.4521    0.0000 C   0  0  0  0  0  0  0  0  0  0  0  0
    7.7675   -6.2296    0.0000 C   0  0  0  0  0  0  0  0  0  0  0  0
    6.9343    1.1251    0.0000 H   0  0  0  0  0  0  0  0  0  0  0  0
    8.3372    0.9351    0.0000 H   0  0  0  0  0  0  0  0  0  0  0  0
    6.9343    3.3651    0.0000 H   0  0  0  0  0  0  0  0  0  0  0  0
    6.4668    3.7200    0.0000 H   0  0  0  0  0  0  0  0  0  0  0  0
    5.6697    3.7200    0.0000 H   0  0  0  0  0  0  0  0  0  0  0  0
    9.0649    2.2200    0.0000 H   0  0  0  0  0  0  0  0  0  0  0  0
    8.2678    2.2200    0.0000 H   0  0  0  0  0  0  0  0  0  0  0  0
    9.4770   -1.8407    0.0000 H   0  0  0  0  0  0  0  0  0  0  0  0
    9.1860    0.1978    0.0000 H   0  0  0  0  0  0  0  0  0  0  0  0
   10.3762   -2.9343    0.0000 H   0  0  0  0  0  0  0  0  0  0  0  0
   10.9276   -3.1356    0.0000 H   0  0  0  0  0  0  0  0  0  0  0  0
   11.6892   -2.9007    0.0000 H   0  0  0  0  0  0  0  0  0  0  0  0
    4.3154    0.5905    0.0000 H   0  0  0  0  0  0  0  0  0  0  0  0
    8.5693   -2.5042    0.0000 H   0  0  0  0  0  0  0  0  0  0  0  0
    2.8665    3.0780    0.0000 H   0  0  0  0  0  0  0  0  0  0  0  0
   12.0609    0.4890    0.0000 H   0  0  0  0  0  0  0  0  0  0  0  0
    3.7865    4.5959    0.0000 H   0  0  0  0  0  0  0  0  0  0  0  0
   14.1787   -1.4609    0.0000 H   0  0  0  0  0  0  0  0  0  0  0  0
   10.3984    2.3651    0.0000 H   0  0  0  0  0  0  0  0  0  0  0  0
    5.5191   -1.9787    0.0000 H   0  0  0  0  0  0  0  0  0  0  0  0
    2.0000    1.5289    0.0000 H   0  0  0  0  0  0  0  0  0  0  0  0
    5.0942   -0.5437    0.0000 H   0  0  0  0  0  0  0  0  0  0  0  0
   13.7469   -3.1826    0.0000 H   0  0  0  0  0  0  0  0  0  0  0  0
    8.1294    6.0551    0.0000 H   0  0  0  0  0  0  0  0  0  0  0  0
    9.5323    3.6251    0.0000 H   0  0  0  0  0  0  0  0  0  0  0  0
   14.5501    0.2748    0.0000 H   0  0  0  0  0  0  0  0  0  0  0  0
   10.0271   -5.8570    0.0000 H   0  0  0  0  0  0  0  0  0  0  0  0
    7.9702   -3.9485    0.0000 H   0  0  0  0  0  0  0  0  0  0  0  0
   11.8013    4.5551    0.0000 H   0  0  0  0  0  0  0  0  0  0  0  0
    8.9954    7.5551    0.0000 H   0  0  0  0  0  0  0  0  0  0  0  0
   11.2644    6.8651    0.0000 H   0  0  0  0  0  0  0  0  0  0  0  0
    6.0762   -5.5060    0.0000 H   0  0  0  0  0  0  0  0  0  0  0  0
    9.6417   -7.5456    0.0000 H   0  0  0  0  0  0  0  0  0  0  0  0
    7.2701   -7.5551    0.0000 H   0  0  0  0  0  0  0  0  0  0  0  0
  1 23  1  0  0  0  0
  1 30  1  0  0  0  0
 25  2  1  1  0  0  0
  2 47  1  0  0  0  0
  3 31  1  0  0  0  0
  3 43  1  0  0  0  0
 34  4  1  1  0  0  0
  4 54  1  0  0  0  0
  5 37  1  0  0  0  0
  5 82  1  0  0  0  0
  6 39  1  0  0  0  0
  6 84  1  0  0  0  0
  7 42  1  0  0  0  0
  7 85  1  0  0  0  0
  8 39  2  0  0  0  0
  9 46  1  0  0  0  0
  9 86  1  0  0  0  0
 10 48  1  0  0  0  0
 10 87  1  0  0  0  0
 11 45  2  0  0  0  0
 12 49  1  0  0  0  0
 12 88  1  0  0  0  0
 13 47  2  0  0  0  0
 14 48  2  0  0  0  0
 15 53  1  0  0  0  0
 15 91  1  0  0  0  0
 16 54  2  0  0  0  0
 17 58  1  0  0  0  0
 17 94  1  0  0  0  0
 18 59  1  0  0  0  0
 18 95  1  0  0  0  0
 19 60  1  0  0  0  0
 19 96  1  0  0  0  0
 20 63  1  0  0  0  0
 20 97  1  0  0  0  0
 21 64  1  0  0  0  0
 21 98  1  0  0  0  0
 22 65  1  0  0  0  0
 22 99  1  0  0  0  0
 23 24  1  1  0  0  0
 23 25  1  0  0  0  0
 23 66  1  0  0  0  0
 24 27  1  0  0  0  0
 24 28  1  0  0  0  0
 24 67  1  0  0  0  0
 25 26  1  0  0  0  0
 25 68  1  0  0  0  0
 26 29  1  0  0  0  0
 26 69  1  0  0  0  0
 26 70  1  0  0  0  0
 27 32  2  0  0  0  0
 27 35  1  0  0  0  0
 28 39  1  0  0  0  0
 28 71  1  0  0  0  0
 28 72  1  0  0  0  0
 29 30  1  0  0  0  0
 29 37  2  0  0  0  0
 30 38  2  0  0  0  0
 31 33  1  1  0  0  0
 31 34  1  0  0  0  0
 31 73  1  0  0  0  0
 32 33  1  0  0  0  0
 32 74  1  0  0  0  0
 33 41  2  0  0  0  0
 34 36  1  0  0  0  0
 34 75  1  0  0  0  0
 35 42  2  0  0  0  0
 35 48  1  0  0  0  0
 36 40  1  0  0  0  0
 36 76  1  0  0  0  0
 36 77  1  0  0  0  0
 37 44  1  0  0  0  0
 38 46  1  0  0  0  0
 38 78  1  0  0  0  0
 40 43  1  0  0  0  0
 40 49  2  0  0  0  0
 41 45  1  0  0  0  0
 41 79  1  0  0  0  0
 42 45  1  0  0  0  0
 43 50  2  0  0  0  0
 44 46  2  0  0  0  0
 44 80  1  0  0  0  0
 47 51  1  0  0  0  0
 49 52  1  0  0  0  0
 50 53  1  0  0  0  0
 50 81  1  0  0  0  0
 51 55  2  0  0  0  0
 51 56  1  0  0  0  0
 52 53  2  0  0  0  0
 52 83  1  0  0  0  0
 54 57  1  0  0  0  0
 55 59  1  0  0  0  0
 55 89  1  0  0  0  0
 56 58  2  0  0  0  0
 56 90  1  0  0  0  0
 57 61  2  0  0  0  0
 57 62  1  0  0  0  0
 58 60  1  0  0  0  0
 59 60  2  0  0  0  0
 61 64  1  0  0  0  0
 61 92  1  0  0  0  0
 62 63  2  0  0  0  0
 62 93  1  0  0  0  0
 63 65  1  0  0  0  0
 64 65  2  0  0  0  0
M  END
> <PUBCHEM_COMPOUND_CID>
100945367

> <PUBCHEM_COMPOUND_CANONICALIZED>
1

> <PUBCHEM_CACTVS_COMPLEXITY>
1910

> <PUBCHEM_CACTVS_HBOND_ACCEPTOR>
22

> <PUBCHEM_CACTVS_HBOND_DONOR>
13

> <PUBCHEM_CACTVS_ROTATABLE_BOND>
12

> <PUBCHEM_CACTVS_SUBSKEYS>
AAADcfB8PgAAAAAAAAAAAAAAAAAAAAAAAAA0aMGCBAAAAACRVAAAGgAACAAADRSgmAIwDoAABgCIAqDSCAICCAAkIAAAiAFGiMgNJzKGNRqCeSGlwBULuYfK7PzOIAABCAAIQABAAAIQABCAAAAAAAAAAA==

> <PUBCHEM_IUPAC_OPENEYE_NAME>
7-[2-carboxy-1-[(2R,3R)-5,7-dihydroxy-3-(3,4,5-trihydroxybenzoyl)oxy-chroman-2-yl]ethyl]-5-[(2R,3R)-5,7-dihydroxy-3-(3,4,5-trihydroxybenzoyl)oxy-chroman-2-yl]-2-hydroxy-3-oxo-cyclohepta-1,4,6-triene-1-carboxylic acid

> <PUBCHEM_IUPAC_CAS_NAME>
7-[2-carboxy-1-[(2R,3R)-5,7-dihydroxy-3-[oxo-(3,4,5-trihydroxyphenyl)methoxy]-3,4-dihydro-2H-1-benzopyran-2-yl]ethyl]-5-[(2R,3R)-5,7-dihydroxy-3-[oxo-(3,4,5-trihydroxyphenyl)methoxy]-3,4-dihydro-2H-1-benzopyran-2-yl]-2-hydroxy-3-oxo-1-cyclohepta-1,4,6-trienecarboxylic acid

> <PUBCHEM_IUPAC_NAME_MARKUP>
7-[2-carboxy-1-[(2<I>R</I>,3<I>R</I>)-5,7-dihydroxy-3-(3,4,5-trihydroxybenzoyl)oxy-3,4-dihydro-2<I>H</I>-chromen-2-yl]ethyl]-5-[(2<I>R</I>,3<I>R</I>)-5,7-dihydroxy-3-(3,4,5-trihydroxybenzoyl)oxy-3,4-dihydro-2<I>H</I>-chromen-2-yl]-2-hydroxy-3-oxocyclohepta-1,4,6-triene-1-carboxylic acid

> <PUBCHEM_IUPAC_NAME>
7-[2-carboxy-1-[(2R,3R)-5,7-dihydroxy-3-(3,4,5-trihydroxybenzoyl)oxy-3,4-dihydro-2H-chromen-2-yl]ethyl]-5-[(2R,3R)-5,7-dihydroxy-3-(3,4,5-trihydroxybenzoyl)oxy-3,4-dihydro-2H-chromen-2-yl]-2-hydroxy-3-oxocyclohepta-1,4,6-triene-1-carboxylic acid

> <PUBCHEM_IUPAC_SYSTEMATIC_NAME>
5-[(2R,3R)-5,7-bis(oxidanyl)-3-[3,4,5-tris(oxidanyl)phenyl]carbonyloxy-3,4-dihydro-2H-chromen-2-yl]-7-[1-[(2R,3R)-5,7-bis(oxidanyl)-3-[3,4,5-tris(oxidanyl)phenyl]carbonyloxy-3,4-dihydro-2H-chromen-2-yl]-3-oxidanyl-3-oxidanylidene-propyl]-2-oxidanyl-3-oxidanylidene-cyclohepta-1,4,6-triene-1-carboxylic acid

> <PUBCHEM_IUPAC_TRADITIONAL_NAME>
7-[2-carboxy-1-[(2R,3R)-3-galloyloxy-5,7-dihydroxy-chroman-2-yl]ethyl]-5-[(2R,3R)-3-galloyloxy-5,7-dihydroxy-chroman-2-yl]-2-hydroxy-3-keto-cyclohepta-1,4,6-triene-1-carboxylic acid

> <PUBCHEM_IUPAC_INCHI>
InChI=1S/C43H34O22/c44-17-7-23(46)21-11-32(64-42(60)15-3-25(48)36(55)26(49)4-15)39(62-30(21)9-17)14-1-19(35(41(58)59)38(57)29(52)2-14)20(13-34(53)54)40-33(12-22-24(47)8-18(45)10-31(22)63-40)65-43(61)16-5-27(50)37(56)28(51)6-16/h1-10,20,32-33,39-40,44-51,55-56H,11-13H2,(H,52,57)(H,53,54)(H,58,59)/t20?,32-,33-,39-,40-/m1/s1

> <PUBCHEM_IUPAC_INCHIKEY>
FNRFUGUISXPIKU-HYMCCRAQSA-N

> <PUBCHEM_XLOGP3_AA>
2.9

> <PUBCHEM_EXACT_MASS>
902.15417271

> <PUBCHEM_MOLECULAR_FORMULA>
C43H34O22

> <PUBCHEM_MOLECULAR_WEIGHT>
902.7

> <PUBCHEM_OPENEYE_CAN_SMILES>
C1C(C(OC2=CC(=CC(=C21)O)O)C3=CC(=O)C(=C(C(=C3)C(CC(=O)O)C4C(CC5=C(C=C(C=C5O4)O)O)OC(=O)C6=CC(=C(C(=C6)O)O)O)C(=O)O)O)OC(=O)C7=CC(=C(C(=C7)O)O)O

> <PUBCHEM_OPENEYE_ISO_SMILES>
C1[C@H]([C@H](OC2=CC(=CC(=C21)O)O)C3=CC(=O)C(=C(C(=C3)C(CC(=O)O)[C@@H]4[C@@H](CC5=C(C=C(C=C5O4)O)O)OC(=O)C6=CC(=C(C(=C6)O)O)O)C(=O)O)O)OC(=O)C7=CC(=C(C(=C7)O)O)O

> <PUBCHEM_CACTVS_TPSA>
385

> <PUBCHEM_MONOISOTOPIC_WEIGHT>
902.15417271

> <PUBCHEM_TOTAL_CHARGE>
0

> <PUBCHEM_HEAVY_ATOM_COUNT>
65

> <PUBCHEM_ATOM_DEF_STEREO_COUNT>
4

> <PUBCHEM_ATOM_UDEF_STEREO_COUNT>
1

> <PUBCHEM_BOND_DEF_STEREO_COUNT>
0

> <PUBCHEM_BOND_UDEF_STEREO_COUNT>
0

> <PUBCHEM_ISOTOPIC_ATOM_COUNT>
0

> <PUBCHEM_COMPONENT_COUNT>
1

> <PUBCHEM_CACTVS_TAUTO_COUNT>
-1

> <PUBCHEM_COORDINATE_TYPE>
1
5
255

> <PUBCHEM_BONDANNOTATIONS>
25  2  5
23  24  5
24  28  3
27  32  8
27  35  8
29  30  8
29  37  8
30  38  8
31  33  5
32  33  8
33  41  8
35  42  8
37  44  8
38  46  8
34  4  5
40  43  8
40  49  8
41  45  8
42  45  8
43  50  8
44  46  8
49  52  8
50  53  8
51  55  8
51  56  8
52  53  8
55  59  8
56  58  8
57  61  8
57  62  8
58  60  8
59  60  8
61  64  8
62  63  8
63  65  8
64  65  8

$$$$
