6852391
  -OEChem-01212209392D

 57 59  0     1  0  0  0  0  0999 V2000
   10.9671    4.9492    0.0000 Br  0  5  0  0  0  0  0  0  0  0  0  0
    0.0000    4.7270    0.0000 O   0  0  0  0  0  0  0  0  0  0  0  0
    5.3728    4.7214    0.0000 O   0  0  0  0  0  0  0  0  0  0  0  0
    4.9245    3.0484    0.0000 O   0  0  0  0  0  0  0  0  0  0  0  0
    8.2705    3.9449    0.0000 O   0  0  0  0  0  0  0  0  0  0  0  0
    1.8802    7.0941    0.0000 N   0  3  0  0  0  0  0  0  0  0  0  0
    2.3580    5.1455    0.0000 C   0  0  1  0  0  0  0  0  0  0  0  0
    2.6168    6.1115    0.0000 C   0  0  2  0  0  0  0  0  0  0  0  0
    0.9853    4.5535    0.0000 C   0  0  2  0  0  0  0  0  0  0  0  0
    0.6433    5.4932    0.0000 C   0  0  1  0  0  0  0  0  0  0  0  0
    3.6297    4.3509    0.0000 C   0  0  0  0  0  0  0  0  0  0  0  0
    4.0485    5.9138    0.0000 C   0  0  0  0  0  0  0  0  0  0  0  0
    4.4068    4.9802    0.0000 C   0  0  0  0  0  0  0  0  0  0  0  0
    1.9847    8.0886    0.0000 C   0  0  0  0  0  0  0  0  0  0  0  0
    0.9667    7.5008    0.0000 C   0  0  0  0  0  0  0  0  0  0  0  0
    2.8983    8.4953    0.0000 C   0  0  0  0  0  0  0  0  0  0  0  0
    3.0028    9.4898    0.0000 C   0  0  0  0  0  0  0  0  0  0  0  0
    5.6316    3.7555    0.0000 C   0  0  0  0  0  0  0  0  0  0  0  0
    3.9164    9.8966    0.0000 C   0  0  0  0  0  0  0  0  0  0  0  0
    6.5975    3.4966    0.0000 C   0  0  2  0  0  0  0  0  0  0  0  0
    7.3046    4.2038    0.0000 C   0  0  0  0  0  0  0  0  0  0  0  0
    6.8563    2.5307    0.0000 C   0  0  0  0  0  0  0  0  0  0  0  0
    7.8222    2.2719    0.0000 C   0  0  0  0  0  0  0  0  0  0  0  0
    6.1492    1.8236    0.0000 C   0  0  0  0  0  0  0  0  0  0  0  0
    8.0811    1.3060    0.0000 C   0  0  0  0  0  0  0  0  0  0  0  0
    6.4080    0.8577    0.0000 C   0  0  0  0  0  0  0  0  0  0  0  0
    7.3740    0.5989    0.0000 C   0  0  0  0  0  0  0  0  0  0  0  0
    2.1380    4.3245    0.0000 H   0  0  0  0  0  0  0  0  0  0  0  0
    2.8368    6.9325    0.0000 H   0  0  0  0  0  0  0  0  0  0  0  0
    1.1973    3.9709    0.0000 H   0  0  0  0  0  0  0  0  0  0  0  0
    0.4312    6.0758    0.0000 H   0  0  0  0  0  0  0  0  0  0  0  0
    3.2451    3.8646    0.0000 H   0  0  0  0  0  0  0  0  0  0  0  0
    4.0706    3.9150    0.0000 H   0  0  0  0  0  0  0  0  0  0  0  0
    4.6563    6.0361    0.0000 H   0  0  0  0  0  0  0  0  0  0  0  0
    4.0294    6.5335    0.0000 H   0  0  0  0  0  0  0  0  0  0  0  0
    4.5357    4.3738    0.0000 H   0  0  0  0  0  0  0  0  0  0  0  0
    1.8347    8.6902    0.0000 H   0  0  0  0  0  0  0  0  0  0  0  0
    1.3662    8.0453    0.0000 H   0  0  0  0  0  0  0  0  0  0  0  0
    1.2188    8.0672    0.0000 H   0  0  0  0  0  0  0  0  0  0  0  0
    0.4003    7.7530    0.0000 H   0  0  0  0  0  0  0  0  0  0  0  0
    0.7145    6.9344    0.0000 H   0  0  0  0  0  0  0  0  0  0  0  0
    3.0483    7.8938    0.0000 H   0  0  0  0  0  0  0  0  0  0  0  0
    3.5168    8.5386    0.0000 H   0  0  0  0  0  0  0  0  0  0  0  0
    2.8528   10.0914    0.0000 H   0  0  0  0  0  0  0  0  0  0  0  0
    2.3843    9.4466    0.0000 H   0  0  0  0  0  0  0  0  0  0  0  0
    4.1685    9.3302    0.0000 H   0  0  0  0  0  0  0  0  0  0  0  0
    4.4828   10.1488    0.0000 H   0  0  0  0  0  0  0  0  0  0  0  0
    3.6642   10.4630    0.0000 H   0  0  0  0  0  0  0  0  0  0  0  0
    7.1964    3.3362    0.0000 H   0  0  0  0  0  0  0  0  0  0  0  0
    7.5666    4.7657    0.0000 H   0  0  0  0  0  0  0  0  0  0  0  0
    6.7967    4.5594    0.0000 H   0  0  0  0  0  0  0  0  0  0  0  0
    8.2606    2.7103    0.0000 H   0  0  0  0  0  0  0  0  0  0  0  0
    5.5503    1.9841    0.0000 H   0  0  0  0  0  0  0  0  0  0  0  0
    8.7089    4.3834    0.0000 H   0  0  0  0  0  0  0  0  0  0  0  0
    8.6799    1.1455    0.0000 H   0  0  0  0  0  0  0  0  0  0  0  0
    5.9696    0.4193    0.0000 H   0  0  0  0  0  0  0  0  0  0  0  0
    7.5344    0.0000    0.0000 H   0  0  0  0  0  0  0  0  0  0  0  0
  9  2  1  1  0  0  0
 10  2  1  1  0  0  0
  3 13  1  0  0  0  0
  3 18  1  0  0  0  0
  4 18  2  0  0  0  0
  5 21  1  0  0  0  0
  5 54  1  0  0  0  0
  6  7  1  0  0  0  0
  6  8  1  0  0  0  0
  6 14  1  0  0  0  0
  6 15  1  0  0  0  0
  7  9  1  0  0  0  0
  7 11  1  0  0  0  0
  7 28  1  1  0  0  0
  8 10  1  0  0  0  0
  8 12  1  0  0  0  0
  8 29  1  6  0  0  0
  9 10  1  0  0  0  0
  9 30  1  0  0  0  0
 10 31  1  0  0  0  0
 11 13  1  0  0  0  0
 11 32  1  0  0  0  0
 11 33  1  0  0  0  0
 12 13  1  0  0  0  0
 12 34  1  0  0  0  0
 12 35  1  0  0  0  0
 13 36  1  0  0  0  0
 14 16  1  0  0  0  0
 14 37  1  0  0  0  0
 14 38  1  0  0  0  0
 15 39  1  0  0  0  0
 15 40  1  0  0  0  0
 15 41  1  0  0  0  0
 16 17  1  0  0  0  0
 16 42  1  0  0  0  0
 16 43  1  0  0  0  0
 17 19  1  0  0  0  0
 17 44  1  0  0  0  0
 17 45  1  0  0  0  0
 18 20  1  0  0  0  0
 19 46  1  0  0  0  0
 19 47  1  0  0  0  0
 19 48  1  0  0  0  0
 20 21  1  6  0  0  0
 20 22  1  0  0  0  0
 20 49  1  0  0  0  0
 21 50  1  0  0  0  0
 21 51  1  0  0  0  0
 22 23  2  0  0  0  0
 22 24  1  0  0  0  0
 23 25  1  0  0  0  0
 23 52  1  0  0  0  0
 24 26  2  0  0  0  0
 24 53  1  0  0  0  0
 25 27  2  0  0  0  0
 25 55  1  0  0  0  0
 26 27  1  0  0  0  0
 26 56  1  0  0  0  0
 27 57  1  0  0  0  0
M  CHG  2   1  -1   6   1
M  END
> <PUBCHEM_COMPOUND_CID>
6852391

> <PUBCHEM_COMPOUND_CANONICALIZED>
1

> <PUBCHEM_CACTVS_COMPLEXITY>
500

> <PUBCHEM_CACTVS_HBOND_ACCEPTOR>
5

> <PUBCHEM_CACTVS_HBOND_DONOR>
1

> <PUBCHEM_CACTVS_ROTATABLE_BOND>
8

> <PUBCHEM_CACTVS_SUBSKEYS>
AAADceB6OAAAEAAAAAAAAAAAEgAAAWAAAAA8WIAABgAAAAABAAAAHgAACAAADTzhmAYyCIMABgCIAiDSCAACAAAgAAAIiAEIAIgKMDaAlRCHYAAn4AGYiAfY6OyOgAAAAAAAAAAAAAAAAAAAAAAAAAAAAA==

> <PUBCHEM_IUPAC_OPENEYE_NAME>
[(1S,2S,4R,5R)-9-butyl-9-methyl-3-oxa-9-azoniatricyclo[3.3.1.02,4]nonan-7-yl] (2S)-3-hydroxy-2-phenyl-propanoate;bromide

> <PUBCHEM_IUPAC_CAS_NAME>
(2S)-3-hydroxy-2-phenylpropanoic acid [(1S,2S,4R,5R)-9-butyl-9-methyl-3-oxa-9-azoniatricyclo[3.3.1.02,4]nonan-7-yl] ester;bromide

> <PUBCHEM_IUPAC_NAME_MARKUP>
[(1<I>S</I>,2<I>S</I>,4<I>R</I>,5<I>R</I>)-9-butyl-9-methyl-3-oxa-9-azoniatricyclo[3.3.1.0<SUP>2,4</SUP>]nonan-7-yl] (2<I>S</I>)-3-hydroxy-2-phenylpropanoate;bromide

> <PUBCHEM_IUPAC_NAME>
[(1S,2S,4R,5R)-9-butyl-9-methyl-3-oxa-9-azoniatricyclo[3.3.1.02,4]nonan-7-yl] (2S)-3-hydroxy-2-phenylpropanoate;bromide

> <PUBCHEM_IUPAC_SYSTEMATIC_NAME>
[(1S,2S,4R,5R)-9-butyl-9-methyl-3-oxa-9-azoniatricyclo[3.3.1.02,4]nonan-7-yl] (2S)-3-oxidanyl-2-phenyl-propanoate;bromide

> <PUBCHEM_IUPAC_TRADITIONAL_NAME>
(2S)-3-hydroxy-2-phenyl-propionic acid [(1S,2S,4R,5R)-9-butyl-9-methyl-3-oxa-9-azoniatricyclo[3.3.1.02,4]nonan-7-yl] ester;bromide

> <PUBCHEM_IUPAC_INCHI>
InChI=1S/C21H30NO4.BrH/c1-3-4-10-22(2)17-11-15(12-18(22)20-19(17)26-20)25-21(24)16(13-23)14-8-6-5-7-9-14;/h5-9,15-20,23H,3-4,10-13H2,1-2H3;1H/q+1;/p-1/t15?,16-,17-,18+,19-,20+,22?;/m1./s1

> <PUBCHEM_IUPAC_INCHIKEY>
HOZOZZFCZRXYEK-HNHWXVNLSA-M

> <PUBCHEM_EXACT_MASS>
439.13582

> <PUBCHEM_MOLECULAR_FORMULA>
C21H30BrNO4

> <PUBCHEM_MOLECULAR_WEIGHT>
440.4

> <PUBCHEM_OPENEYE_CAN_SMILES>
CCCC[N+]1(C2CC(CC1C3C2O3)OC(=O)C(CO)C4=CC=CC=C4)C.[Br-]

> <PUBCHEM_OPENEYE_ISO_SMILES>
CCCC[N+]1([C@@H]2CC(C[C@H]1[C@H]3[C@@H]2O3)OC(=O)[C@H](CO)C4=CC=CC=C4)C.[Br-]

> <PUBCHEM_CACTVS_TPSA>
59.1

> <PUBCHEM_MONOISOTOPIC_WEIGHT>
439.13582

> <PUBCHEM_TOTAL_CHARGE>
0

> <PUBCHEM_HEAVY_ATOM_COUNT>
27

> <PUBCHEM_ATOM_DEF_STEREO_COUNT>
5

> <PUBCHEM_ATOM_UDEF_STEREO_COUNT>
0

> <PUBCHEM_BOND_DEF_STEREO_COUNT>
0

> <PUBCHEM_BOND_UDEF_STEREO_COUNT>
0

> <PUBCHEM_ISOTOPIC_ATOM_COUNT>
0

> <PUBCHEM_COMPONENT_COUNT>
2

> <PUBCHEM_CACTVS_TAUTO_COUNT>
1

> <PUBCHEM_COORDINATE_TYPE>
1
5
255

> <PUBCHEM_BONDANNOTATIONS>
10  2  5
9  2  5
20  21  6
22  23  8
22  24  8
23  25  8
24  26  8
25  27  8
26  27  8
7  28  5
8  29  6

$$$$
