145960565
  -OEChem-02142205022D

 77 80  0     1  0  0  0  0  0999 V2000
    2.5369   -0.2625    0.0000 O   0  0  0  0  0  0  0  0  0  0  0  0
    5.1350   -0.7625    0.0000 O   0  0  0  0  0  0  0  0  0  0  0  0
    3.4030   -0.7625    0.0000 O   0  0  0  0  0  0  0  0  0  0  0  0
   11.9239   -5.6259    0.0000 O   0  5  0  0  0  0  0  0  0  0  0  0
   10.5226   -6.6440    0.0000 O   0  0  0  0  0  0  0  0  0  0  0  0
    6.1056   -3.2570    0.0000 N   0  0  0  0  0  0  0  0  0  0  0  0
    7.5837   -2.5989    0.0000 N   0  0  0  0  0  0  0  0  0  0  0  0
    7.0837   -3.4649    0.0000 N   0  0  0  0  0  0  0  0  0  0  0  0
   10.9294   -5.7304    0.0000 N   0  3  0  0  0  0  0  0  0  0  0  0
    5.1350    4.2375    0.0000 C   0  0  1  0  0  0  0  0  0  0  0  0
    5.1350    5.2375    0.0000 C   0  0  2  0  0  0  0  0  0  0  0  0
    6.0290    5.7722    0.0000 C   0  0  0  0  0  0  0  0  0  0  0  0
    4.2690    3.7375    0.0000 C   0  0  3  0  0  0  0  0  0  0  0  0
    6.0290    3.7029    0.0000 C   0  0  0  0  0  0  0  0  0  0  0  0
    4.2690    5.7375    0.0000 C   0  0  0  0  0  0  0  0  0  0  0  0
    6.9350    5.2584    0.0000 C   0  0  0  0  0  0  0  0  0  0  0  0
    6.9350    4.2167    0.0000 C   0  0  0  0  0  0  0  0  0  0  0  0
    5.1350    3.2375    0.0000 C   0  0  0  0  0  0  0  0  0  0  0  0
    3.4030    5.2375    0.0000 C   0  0  0  0  0  0  0  0  0  0  0  0
    3.4030    4.2375    0.0000 C   0  0  0  0  0  0  0  0  0  0  0  0
    6.5189    6.6440    0.0000 C   0  0  0  0  0  0  0  0  0  0  0  0
    5.5190    6.6324    0.0000 C   0  0  0  0  0  0  0  0  0  0  0  0
    4.2690    2.7375    0.0000 C   0  0  0  0  0  0  0  0  0  0  0  0
    2.5369    3.7375    0.0000 C   0  0  0  0  0  0  0  0  0  0  0  0
    3.4030    2.2375    0.0000 C   0  0  0  0  0  0  0  0  0  0  0  0
    3.4030    1.2375    0.0000 C   0  0  0  0  0  0  0  0  0  0  0  0
    4.2690    0.7375    0.0000 C   0  0  0  0  0  0  0  0  0  0  0  0
    2.5369    0.7375    0.0000 C   0  0  0  0  0  0  0  0  0  0  0  0
    4.2690   -0.2625    0.0000 C   0  0  0  0  0  0  0  0  0  0  0  0
    5.1350   -1.7625    0.0000 C   0  0  0  0  0  0  0  0  0  0  0  0
    6.0010   -2.2625    0.0000 C   0  0  0  0  0  0  0  0  0  0  0  0
    6.9146   -1.8557    0.0000 C   0  0  0  0  0  0  0  0  0  0  0  0
    8.5782   -2.4943    0.0000 C   0  0  0  0  0  0  0  0  0  0  0  0
    9.1660   -3.3034    0.0000 C   0  0  0  0  0  0  0  0  0  0  0  0
    8.7593   -4.2169    0.0000 C   0  0  0  0  0  0  0  0  0  0  0  0
   10.1605   -3.1988    0.0000 C   0  0  0  0  0  0  0  0  0  0  0  0
    9.3471   -5.0259    0.0000 C   0  0  0  0  0  0  0  0  0  0  0  0
   10.7483   -4.0078    0.0000 C   0  0  0  0  0  0  0  0  0  0  0  0
   10.3416   -4.9214    0.0000 C   0  0  0  0  0  0  0  0  0  0  0  0
    5.1285    6.0875    0.0000 H   0  0  0  0  0  0  0  0  0  0  0  0
    3.7320    3.4275    0.0000 H   0  0  0  0  0  0  0  0  0  0  0  0
    5.6244    3.2331    0.0000 H   0  0  0  0  0  0  0  0  0  0  0  0
    6.4226    3.2239    0.0000 H   0  0  0  0  0  0  0  0  0  0  0  0
    4.6675    6.2125    0.0000 H   0  0  0  0  0  0  0  0  0  0  0  0
    3.8705    6.2125    0.0000 H   0  0  0  0  0  0  0  0  0  0  0  0
    7.5459    5.1523    0.0000 H   0  0  0  0  0  0  0  0  0  0  0  0
    7.1441    5.8421    0.0000 H   0  0  0  0  0  0  0  0  0  0  0  0
    7.1441    3.6330    0.0000 H   0  0  0  0  0  0  0  0  0  0  0  0
    7.5459    4.3228    0.0000 H   0  0  0  0  0  0  0  0  0  0  0  0
    4.5150    3.2375    0.0000 H   0  0  0  0  0  0  0  0  0  0  0  0
    5.1350    2.6175    0.0000 H   0  0  0  0  0  0  0  0  0  0  0  0
    5.7550    3.2375    0.0000 H   0  0  0  0  0  0  0  0  0  0  0  0
    3.1909    5.8202    0.0000 H   0  0  0  0  0  0  0  0  0  0  0  0
    2.7924    5.1299    0.0000 H   0  0  0  0  0  0  0  0  0  0  0  0
    7.0594    6.3402    0.0000 H   0  0  0  0  0  0  0  0  0  0  0  0
    6.8227    7.1844    0.0000 H   0  0  0  0  0  0  0  0  0  0  0  0
    5.9784    6.9477    0.0000 H   0  0  0  0  0  0  0  0  0  0  0  0
    6.0523    6.9486    0.0000 H   0  0  0  0  0  0  0  0  0  0  0  0
    5.2028    7.1657    0.0000 H   0  0  0  0  0  0  0  0  0  0  0  0
    4.9857    6.3162    0.0000 H   0  0  0  0  0  0  0  0  0  0  0  0
    4.4810    2.1549    0.0000 H   0  0  0  0  0  0  0  0  0  0  0  0
    4.8796    2.8452    0.0000 H   0  0  0  0  0  0  0  0  0  0  0  0
    2.0000    4.0475    0.0000 H   0  0  0  0  0  0  0  0  0  0  0  0
    2.5369    3.1175    0.0000 H   0  0  0  0  0  0  0  0  0  0  0  0
    2.8660    2.5475    0.0000 H   0  0  0  0  0  0  0  0  0  0  0  0
    4.8796    0.6299    0.0000 H   0  0  0  0  0  0  0  0  0  0  0  0
    4.4810    1.3202    0.0000 H   0  0  0  0  0  0  0  0  0  0  0  0
    2.0000    1.0475    0.0000 H   0  0  0  0  0  0  0  0  0  0  0  0
    4.5244   -1.6548    0.0000 H   0  0  0  0  0  0  0  0  0  0  0  0
    4.9230   -2.3451    0.0000 H   0  0  0  0  0  0  0  0  0  0  0  0
    7.0435   -1.2493    0.0000 H   0  0  0  0  0  0  0  0  0  0  0  0
    9.1355   -2.2226    0.0000 H   0  0  0  0  0  0  0  0  0  0  0  0
    8.4073   -1.8984    0.0000 H   0  0  0  0  0  0  0  0  0  0  0  0
    8.1427   -4.2817    0.0000 H   0  0  0  0  0  0  0  0  0  0  0  0
   10.4127   -2.6324    0.0000 H   0  0  0  0  0  0  0  0  0  0  0  0
    9.0949   -5.5923    0.0000 H   0  0  0  0  0  0  0  0  0  0  0  0
   11.3649   -3.9430    0.0000 H   0  0  0  0  0  0  0  0  0  0  0  0
  1 28  2  0  0  0  0
  2 29  1  0  0  0  0
  2 30  1  0  0  0  0
  3 29  2  0  0  0  0
  4  9  1  0  0  0  0
  5  9  2  0  0  0  0
  6  8  2  0  0  0  0
  6 31  1  0  0  0  0
  7  8  1  0  0  0  0
  7 32  1  0  0  0  0
  7 33  1  0  0  0  0
  9 39  1  0  0  0  0
 10 11  1  0  0  0  0
 10 13  1  0  0  0  0
 10 14  1  0  0  0  0
 10 18  1  1  0  0  0
 11 12  1  0  0  0  0
 11 15  1  0  0  0  0
 11 40  1  6  0  0  0
 12 16  1  0  0  0  0
 12 21  1  0  0  0  0
 12 22  1  0  0  0  0
 13 20  1  0  0  0  0
 13 23  1  0  0  0  0
 13 41  1  0  0  0  0
 14 17  1  0  0  0  0
 14 42  1  0  0  0  0
 14 43  1  0  0  0  0
 15 19  1  0  0  0  0
 15 44  1  0  0  0  0
 15 45  1  0  0  0  0
 16 17  1  0  0  0  0
 16 46  1  0  0  0  0
 16 47  1  0  0  0  0
 17 48  1  0  0  0  0
 17 49  1  0  0  0  0
 18 50  1  0  0  0  0
 18 51  1  0  0  0  0
 18 52  1  0  0  0  0
 19 20  1  0  0  0  0
 19 53  1  0  0  0  0
 19 54  1  0  0  0  0
 20 24  2  0  0  0  0
 21 55  1  0  0  0  0
 21 56  1  0  0  0  0
 21 57  1  0  0  0  0
 22 58  1  0  0  0  0
 22 59  1  0  0  0  0
 22 60  1  0  0  0  0
 23 25  1  0  0  0  0
 23 61  1  0  0  0  0
 23 62  1  0  0  0  0
 24 63  1  0  0  0  0
 24 64  1  0  0  0  0
 25 26  2  0  0  0  0
 25 65  1  0  0  0  0
 26 27  1  0  0  0  0
 26 28  1  0  0  0  0
 27 29  1  0  0  0  0
 27 66  1  0  0  0  0
 27 67  1  0  0  0  0
 28 68  1  0  0  0  0
 30 31  1  0  0  0  0
 30 69  1  0  0  0  0
 30 70  1  0  0  0  0
 31 32  2  0  0  0  0
 32 71  1  0  0  0  0
 33 34  1  0  0  0  0
 33 72  1  0  0  0  0
 33 73  1  0  0  0  0
 34 35  2  0  0  0  0
 34 36  1  0  0  0  0
 35 37  1  0  0  0  0
 35 74  1  0  0  0  0
 36 38  2  0  0  0  0
 36 75  1  0  0  0  0
 37 39  2  0  0  0  0
 37 76  1  0  0  0  0
 38 39  1  0  0  0  0
 38 77  1  0  0  0  0
M  CHG  2   4  -1   9   1
M  END
> <PUBCHEM_COMPOUND_CID>
145960565

> <PUBCHEM_COMPOUND_CANONICALIZED>
1

> <PUBCHEM_CACTVS_COMPLEXITY>
952

> <PUBCHEM_CACTVS_HBOND_ACCEPTOR>
7

> <PUBCHEM_CACTVS_HBOND_DONOR>
0

> <PUBCHEM_CACTVS_ROTATABLE_BOND>
10

> <PUBCHEM_CACTVS_SUBSKEYS>
AAADcfB7uAAAAAAAAAAAAAAAAAAAAWAAAAAwYMAAAAAAAADBwAAAHgAMAAAADwjhngY+yJIYRACrAzz3zwSCBAQxkgA42AE4fMoKZDLAsZmXIAhmwADI6YcTgMAPiAAAAAAAAAAQAAQAACAAAAAAAAAAAA==

> <PUBCHEM_IUPAC_OPENEYE_NAME>
[1-[(4-nitrophenyl)methyl]triazol-4-yl]methyl (E)-5-[(4aS,8aS)-5,5,8a-trimethyl-2-methylene-decalin-1-yl]-3-formyl-pent-3-enoate

> <PUBCHEM_IUPAC_CAS_NAME>
(E)-5-[(4aS,8aS)-5,5,8a-trimethyl-2-methylene-3,4,4a,6,7,8-hexahydro-1H-naphthalen-1-yl]-3-formyl-3-pentenoic acid [1-[(4-nitrophenyl)methyl]-4-triazolyl]methyl ester

> <PUBCHEM_IUPAC_NAME_MARKUP>
[1-[(4-nitrophenyl)methyl]triazol-4-yl]methyl (<I>E</I>)-5-[(4<I>a</I><I>S</I>,8<I>a</I><I>S</I>)-5,5,8<I>a</I>-trimethyl-2-methylidene-3,4,4<I>a</I>,6,7,8-hexahydro-1<I>H</I>-naphthalen-1-yl]-3-formylpent-3-enoate

> <PUBCHEM_IUPAC_NAME>
[1-[(4-nitrophenyl)methyl]triazol-4-yl]methyl (E)-5-[(4aS,8aS)-5,5,8a-trimethyl-2-methylidene-3,4,4a,6,7,8-hexahydro-1H-naphthalen-1-yl]-3-formylpent-3-enoate

> <PUBCHEM_IUPAC_SYSTEMATIC_NAME>
[1-[(4-nitrophenyl)methyl]-1,2,3-triazol-4-yl]methyl (E)-5-[(4aS,8aS)-5,5,8a-trimethyl-2-methylidene-3,4,4a,6,7,8-hexahydro-1H-naphthalen-1-yl]-3-methanoyl-pent-3-enoate

> <PUBCHEM_IUPAC_TRADITIONAL_NAME>
(E)-5-[(4aS,8aS)-5,5,8a-trimethyl-2-methylene-decalin-1-yl]-3-formyl-pent-3-enoic acid [1-(4-nitrobenzyl)triazol-4-yl]methyl ester

> <PUBCHEM_IUPAC_INCHI>
InChI=1S/C30H38N4O5/c1-21-6-13-27-29(2,3)14-5-15-30(27,4)26(21)12-9-23(19-35)16-28(36)39-20-24-18-33(32-31-24)17-22-7-10-25(11-8-22)34(37)38/h7-11,18-19,26-27H,1,5-6,12-17,20H2,2-4H3/b23-9+/t26?,27-,30+/m0/s1

> <PUBCHEM_IUPAC_INCHIKEY>
DZVJSQDDINENEJ-VZRZFWOCSA-N

> <PUBCHEM_XLOGP3_AA>
5.6

> <PUBCHEM_EXACT_MASS>
534.28422033

> <PUBCHEM_MOLECULAR_FORMULA>
C30H38N4O5

> <PUBCHEM_MOLECULAR_WEIGHT>
534.6

> <PUBCHEM_OPENEYE_CAN_SMILES>
CC1(CCCC2(C1CCC(=C)C2CC=C(CC(=O)OCC3=CN(N=N3)CC4=CC=C(C=C4)[N+](=O)[O-])C=O)C)C

> <PUBCHEM_OPENEYE_ISO_SMILES>
C[C@]12CCCC([C@@H]1CCC(=C)C2C/C=C(\CC(=O)OCC3=CN(N=N3)CC4=CC=C(C=C4)[N+](=O)[O-])/C=O)(C)C

> <PUBCHEM_CACTVS_TPSA>
120

> <PUBCHEM_MONOISOTOPIC_WEIGHT>
534.28422033

> <PUBCHEM_TOTAL_CHARGE>
0

> <PUBCHEM_HEAVY_ATOM_COUNT>
39

> <PUBCHEM_ATOM_DEF_STEREO_COUNT>
2

> <PUBCHEM_ATOM_UDEF_STEREO_COUNT>
1

> <PUBCHEM_BOND_DEF_STEREO_COUNT>
1

> <PUBCHEM_BOND_UDEF_STEREO_COUNT>
0

> <PUBCHEM_ISOTOPIC_ATOM_COUNT>
0

> <PUBCHEM_COMPONENT_COUNT>
1

> <PUBCHEM_CACTVS_TAUTO_COUNT>
-1

> <PUBCHEM_COORDINATE_TYPE>
1
5
255

> <PUBCHEM_BONDANNOTATIONS>
10  18  5
11  40  6
13  23  3
31  32  8
34  35  8
34  36  8
35  37  8
36  38  8
37  39  8
38  39  8
6  31  8
6  8  8
7  32  8
7  8  8

$$$$
