70685572
  -OEChem-02142201592D

 80 82  0     1  0  0  0  0  0999 V2000
    7.1962    4.8450    0.0000 O   0  0  0  0  0  0  0  0  0  0  0  0
    4.5981    2.3450    0.0000 O   0  0  0  0  0  0  0  0  0  0  0  0
   10.6603    3.8450    0.0000 O   0  0  0  0  0  0  0  0  0  0  0  0
    5.4641    7.8450    0.0000 O   0  0  0  0  0  0  0  0  0  0  0  0
    3.7320   -5.1550    0.0000 O   0  0  0  0  0  0  0  0  0  0  0  0
    5.4641   -1.1550    0.0000 O   0  0  0  0  0  0  0  0  0  0  0  0
    8.0622    3.3450    0.0000 N   0  0  0  0  0  0  0  0  0  0  0  0
    6.3301    2.3450    0.0000 N   0  0  0  0  0  0  0  0  0  0  0  0
    9.7942    2.3450    0.0000 N   0  0  0  0  0  0  0  0  0  0  0  0
    3.7320   -1.1550    0.0000 N   0  0  0  0  0  0  0  0  0  0  0  0
    6.3301    3.3450    0.0000 C   0  0  1  0  0  0  0  0  0  0  0  0
    5.4641    3.8450    0.0000 C   0  0  0  0  0  0  0  0  0  0  0  0
    8.9282    3.8450    0.0000 C   0  0  1  0  0  0  0  0  0  0  0  0
    7.1962    3.8450    0.0000 C   0  0  0  0  0  0  0  0  0  0  0  0
    8.9282    4.8450    0.0000 C   0  0  0  0  0  0  0  0  0  0  0  0
    5.4641    4.8450    0.0000 C   0  0  0  0  0  0  0  0  0  0  0  0
    9.7942    5.3450    0.0000 C   0  0  0  0  0  0  0  0  0  0  0  0
    5.4641    1.8450    0.0000 C   0  0  0  0  0  0  0  0  0  0  0  0
    9.7942    3.3450    0.0000 C   0  0  0  0  0  0  0  0  0  0  0  0
    5.4641    0.8450    0.0000 C   0  0  0  0  0  0  0  0  0  0  0  0
    4.5981    5.3450    0.0000 C   0  0  0  0  0  0  0  0  0  0  0  0
    6.3301    5.3450    0.0000 C   0  0  0  0  0  0  0  0  0  0  0  0
    4.5981    0.3450    0.0000 C   0  0  0  0  0  0  0  0  0  0  0  0
    9.7942    6.3450    0.0000 C   0  0  0  0  0  0  0  0  0  0  0  0
   10.6603    4.8450    0.0000 C   0  0  0  0  0  0  0  0  0  0  0  0
    4.5981    6.3450    0.0000 C   0  0  0  0  0  0  0  0  0  0  0  0
    6.3301    6.3450    0.0000 C   0  0  0  0  0  0  0  0  0  0  0  0
    5.4641    6.8450    0.0000 C   0  0  0  0  0  0  0  0  0  0  0  0
    4.5981   -0.6550    0.0000 C   0  0  0  0  0  0  0  0  0  0  0  0
   10.6603    6.8450    0.0000 C   0  0  0  0  0  0  0  0  0  0  0  0
   11.5263    5.3450    0.0000 C   0  0  0  0  0  0  0  0  0  0  0  0
   11.5263    6.3450    0.0000 C   0  0  0  0  0  0  0  0  0  0  0  0
    3.7320   -2.1550    0.0000 C   0  0  0  0  0  0  0  0  0  0  0  0
    2.8660   -6.6550    0.0000 C   0  0  0  0  0  0  0  0  0  0  0  0
    2.8660   -5.6550    0.0000 C   0  0  0  0  0  0  0  0  0  0  0  0
    2.0000   -7.1550    0.0000 C   0  0  0  0  0  0  0  0  0  0  0  0
    3.7320   -4.1550    0.0000 C   0  0  0  0  0  0  0  0  0  0  0  0
    2.8660   -2.6550    0.0000 C   0  0  0  0  0  0  0  0  0  0  0  0
    4.5981   -2.6550    0.0000 C   0  0  0  0  0  0  0  0  0  0  0  0
    2.8660   -3.6550    0.0000 C   0  0  0  0  0  0  0  0  0  0  0  0
    4.5981   -3.6550    0.0000 C   0  0  0  0  0  0  0  0  0  0  0  0
    2.0000   -8.1550    0.0000 C   0  0  0  0  0  0  0  0  0  0  0  0
    6.8671    3.0350    0.0000 H   0  0  0  0  0  0  0  0  0  0  0  0
    4.8535    3.9527    0.0000 H   0  0  0  0  0  0  0  0  0  0  0  0
    5.2520    3.2624    0.0000 H   0  0  0  0  0  0  0  0  0  0  0  0
    8.9282    3.2250    0.0000 H   0  0  0  0  0  0  0  0  0  0  0  0
    8.7162    5.4276    0.0000 H   0  0  0  0  0  0  0  0  0  0  0  0
    8.3176    4.7373    0.0000 H   0  0  0  0  0  0  0  0  0  0  0  0
    8.0622    2.7250    0.0000 H   0  0  0  0  0  0  0  0  0  0  0  0
    6.8671    2.0350    0.0000 H   0  0  0  0  0  0  0  0  0  0  0  0
    5.6762    0.2624    0.0000 H   0  0  0  0  0  0  0  0  0  0  0  0
    6.0747    0.9527    0.0000 H   0  0  0  0  0  0  0  0  0  0  0  0
    4.0611    5.0350    0.0000 H   0  0  0  0  0  0  0  0  0  0  0  0
    6.8671    5.0350    0.0000 H   0  0  0  0  0  0  0  0  0  0  0  0
    4.3860    0.9276    0.0000 H   0  0  0  0  0  0  0  0  0  0  0  0
    3.9875    0.2373    0.0000 H   0  0  0  0  0  0  0  0  0  0  0  0
    9.2573    6.6550    0.0000 H   0  0  0  0  0  0  0  0  0  0  0  0
   10.6603    4.2250    0.0000 H   0  0  0  0  0  0  0  0  0  0  0  0
    4.0611    6.6550    0.0000 H   0  0  0  0  0  0  0  0  0  0  0  0
    6.8671    6.6550    0.0000 H   0  0  0  0  0  0  0  0  0  0  0  0
   10.3312    2.0350    0.0000 H   0  0  0  0  0  0  0  0  0  0  0  0
    9.2573    2.0350    0.0000 H   0  0  0  0  0  0  0  0  0  0  0  0
   10.6603    7.4650    0.0000 H   0  0  0  0  0  0  0  0  0  0  0  0
   12.0632    5.0350    0.0000 H   0  0  0  0  0  0  0  0  0  0  0  0
   12.0632    6.6550    0.0000 H   0  0  0  0  0  0  0  0  0  0  0  0
    3.1951   -0.8450    0.0000 H   0  0  0  0  0  0  0  0  0  0  0  0
    3.0781   -7.2376    0.0000 H   0  0  0  0  0  0  0  0  0  0  0  0
    3.4766   -6.5473    0.0000 H   0  0  0  0  0  0  0  0  0  0  0  0
    2.6540   -5.0724    0.0000 H   0  0  0  0  0  0  0  0  0  0  0  0
    2.2554   -5.7627    0.0000 H   0  0  0  0  0  0  0  0  0  0  0  0
    1.7880   -6.5724    0.0000 H   0  0  0  0  0  0  0  0  0  0  0  0
    1.3894   -7.2627    0.0000 H   0  0  0  0  0  0  0  0  0  0  0  0
    2.3291   -2.3450    0.0000 H   0  0  0  0  0  0  0  0  0  0  0  0
    5.1350   -2.3450    0.0000 H   0  0  0  0  0  0  0  0  0  0  0  0
    4.9272    8.1550    0.0000 H   0  0  0  0  0  0  0  0  0  0  0  0
    2.3291   -3.9650    0.0000 H   0  0  0  0  0  0  0  0  0  0  0  0
    5.1350   -3.9650    0.0000 H   0  0  0  0  0  0  0  0  0  0  0  0
    1.3800   -8.1550    0.0000 H   0  0  0  0  0  0  0  0  0  0  0  0
    2.0000   -8.7750    0.0000 H   0  0  0  0  0  0  0  0  0  0  0  0
    2.6200   -8.1550    0.0000 H   0  0  0  0  0  0  0  0  0  0  0  0
  1 14  2  0  0  0  0
  2 18  2  0  0  0  0
  3 19  2  0  0  0  0
  4 28  1  0  0  0  0
  4 75  1  0  0  0  0
  5 35  1  0  0  0  0
  5 37  1  0  0  0  0
  6 29  2  0  0  0  0
 13  7  1  1  0  0  0
  7 14  1  0  0  0  0
  7 49  1  0  0  0  0
 11  8  1  1  0  0  0
  8 18  1  0  0  0  0
  8 50  1  0  0  0  0
  9 19  1  0  0  0  0
  9 61  1  0  0  0  0
  9 62  1  0  0  0  0
 10 29  1  0  0  0  0
 10 33  1  0  0  0  0
 10 66  1  0  0  0  0
 11 12  1  0  0  0  0
 11 14  1  0  0  0  0
 11 43  1  0  0  0  0
 12 16  1  0  0  0  0
 12 44  1  0  0  0  0
 12 45  1  0  0  0  0
 13 15  1  0  0  0  0
 13 19  1  0  0  0  0
 13 46  1  0  0  0  0
 15 17  1  0  0  0  0
 15 47  1  0  0  0  0
 15 48  1  0  0  0  0
 16 21  2  0  0  0  0
 16 22  1  0  0  0  0
 17 24  2  0  0  0  0
 17 25  1  0  0  0  0
 18 20  1  0  0  0  0
 20 23  1  0  0  0  0
 20 51  1  0  0  0  0
 20 52  1  0  0  0  0
 21 26  1  0  0  0  0
 21 53  1  0  0  0  0
 22 27  2  0  0  0  0
 22 54  1  0  0  0  0
 23 29  1  0  0  0  0
 23 55  1  0  0  0  0
 23 56  1  0  0  0  0
 24 30  1  0  0  0  0
 24 57  1  0  0  0  0
 25 31  2  0  0  0  0
 25 58  1  0  0  0  0
 26 28  2  0  0  0  0
 26 59  1  0  0  0  0
 27 28  1  0  0  0  0
 27 60  1  0  0  0  0
 30 32  2  0  0  0  0
 30 63  1  0  0  0  0
 31 32  1  0  0  0  0
 31 64  1  0  0  0  0
 32 65  1  0  0  0  0
 33 38  2  0  0  0  0
 33 39  1  0  0  0  0
 34 35  1  0  0  0  0
 34 36  1  0  0  0  0
 34 67  1  0  0  0  0
 34 68  1  0  0  0  0
 35 69  1  0  0  0  0
 35 70  1  0  0  0  0
 36 42  1  0  0  0  0
 36 71  1  0  0  0  0
 36 72  1  0  0  0  0
 37 40  2  0  0  0  0
 37 41  1  0  0  0  0
 38 40  1  0  0  0  0
 38 73  1  0  0  0  0
 39 41  2  0  0  0  0
 39 74  1  0  0  0  0
 40 76  1  0  0  0  0
 41 77  1  0  0  0  0
 42 78  1  0  0  0  0
 42 79  1  0  0  0  0
 42 80  1  0  0  0  0
M  END
> <PUBCHEM_COMPOUND_CID>
70685572

> <PUBCHEM_COMPOUND_CANONICALIZED>
1

> <PUBCHEM_CACTVS_COMPLEXITY>
848

> <PUBCHEM_CACTVS_HBOND_ACCEPTOR>
6

> <PUBCHEM_CACTVS_HBOND_DONOR>
5

> <PUBCHEM_CACTVS_ROTATABLE_BOND>
16

> <PUBCHEM_CACTVS_SUBSKEYS>
AAADcfB/uAAAAAAAAAAAAAAAAAAAAAAAAAAwYMAAAAAAAAABUAAAHgAQCAAADCzhmAYyxoLABgCIAiVSUACCCAAhIgAIiIGObIgMZjLGsbuWeCjk1hHI+Ae9yKCOIEAAAAAAAABAgAAAAAAAAAAAAAAAAA==

> <PUBCHEM_IUPAC_OPENEYE_NAME>
N'-[(1S)-2-[[(1S)-2-amino-1-benzyl-2-oxo-ethyl]amino]-1-[(4-hydroxyphenyl)methyl]-2-oxo-ethyl]-N-(4-butoxyphenyl)butanediamide

> <PUBCHEM_IUPAC_CAS_NAME>
N'-[(2S)-1-[[(2S)-1-amino-1-oxo-3-phenylpropan-2-yl]amino]-3-(4-hydroxyphenyl)-1-oxopropan-2-yl]-N-(4-butoxyphenyl)butanediamide

> <PUBCHEM_IUPAC_NAME_MARKUP>
<I>N</I>&apos;-[(2<I>S</I>)-1-[[(2<I>S</I>)-1-amino-1-oxo-3-phenylpropan-2-yl]amino]-3-(4-hydroxyphenyl)-1-oxopropan-2-yl]-<I>N</I>-(4-butoxyphenyl)butanediamide

> <PUBCHEM_IUPAC_NAME>
N'-[(2S)-1-[[(2S)-1-amino-1-oxo-3-phenylpropan-2-yl]amino]-3-(4-hydroxyphenyl)-1-oxopropan-2-yl]-N-(4-butoxyphenyl)butanediamide

> <PUBCHEM_IUPAC_SYSTEMATIC_NAME>
N'-[(2S)-1-[[(2S)-1-azanyl-1-oxidanylidene-3-phenyl-propan-2-yl]amino]-3-(4-hydroxyphenyl)-1-oxidanylidene-propan-2-yl]-N-(4-butoxyphenyl)butanediamide

> <PUBCHEM_IUPAC_TRADITIONAL_NAME>
N'-[(1S)-2-[[(1S)-2-amino-1-benzyl-2-keto-ethyl]amino]-1-(4-hydroxybenzyl)-2-keto-ethyl]-N-(4-butoxyphenyl)succinamide

> <PUBCHEM_IUPAC_INCHI>
InChI=1S/C32H38N4O6/c1-2-3-19-42-26-15-11-24(12-16-26)34-29(38)17-18-30(39)35-28(21-23-9-13-25(37)14-10-23)32(41)36-27(31(33)40)20-22-7-5-4-6-8-22/h4-16,27-28,37H,2-3,17-21H2,1H3,(H2,33,40)(H,34,38)(H,35,39)(H,36,41)/t27-,28-/m0/s1

> <PUBCHEM_IUPAC_INCHIKEY>
OBDMPOUPQKMBEG-NSOVKSMOSA-N

> <PUBCHEM_XLOGP3>
2.5

> <PUBCHEM_EXACT_MASS>
574.27913494

> <PUBCHEM_MOLECULAR_FORMULA>
C32H38N4O6

> <PUBCHEM_MOLECULAR_WEIGHT>
574.7

> <PUBCHEM_OPENEYE_CAN_SMILES>
CCCCOC1=CC=C(C=C1)NC(=O)CCC(=O)NC(CC2=CC=C(C=C2)O)C(=O)NC(CC3=CC=CC=C3)C(=O)N

> <PUBCHEM_OPENEYE_ISO_SMILES>
CCCCOC1=CC=C(C=C1)NC(=O)CCC(=O)N[C@@H](CC2=CC=C(C=C2)O)C(=O)N[C@@H](CC3=CC=CC=C3)C(=O)N

> <PUBCHEM_CACTVS_TPSA>
160

> <PUBCHEM_MONOISOTOPIC_WEIGHT>
574.27913494

> <PUBCHEM_TOTAL_CHARGE>
0

> <PUBCHEM_HEAVY_ATOM_COUNT>
42

> <PUBCHEM_ATOM_DEF_STEREO_COUNT>
2

> <PUBCHEM_ATOM_UDEF_STEREO_COUNT>
0

> <PUBCHEM_BOND_DEF_STEREO_COUNT>
0

> <PUBCHEM_BOND_UDEF_STEREO_COUNT>
0

> <PUBCHEM_ISOTOPIC_ATOM_COUNT>
0

> <PUBCHEM_COMPONENT_COUNT>
1

> <PUBCHEM_CACTVS_TAUTO_COUNT>
-1

> <PUBCHEM_COORDINATE_TYPE>
1
5
255

> <PUBCHEM_BONDANNOTATIONS>
16  21  8
16  22  8
17  24  8
17  25  8
21  26  8
22  27  8
24  30  8
25  31  8
26  28  8
27  28  8
30  32  8
31  32  8
33  38  8
33  39  8
37  40  8
37  41  8
38  40  8
39  41  8
13  7  5
11  8  5

$$$$
