70689760
  -OEChem-02172201152D

 85 89  0     1  0  0  0  0  0999 V2000
    8.1301    5.9400    0.0000 O   0  0  0  0  0  0  0  0  0  0  0  0
   10.7282    3.4400    0.0000 O   0  0  0  0  0  0  0  0  0  0  0  0
    7.2641    6.4400    0.0000 O   0  0  0  0  0  0  0  0  0  0  0  0
   11.5942   -4.0600    0.0000 O   0  0  0  0  0  0  0  0  0  0  0  0
    9.8622   -0.0600    0.0000 O   0  0  0  0  0  0  0  0  0  0  0  0
    7.2641    4.4400    0.0000 N   0  0  0  0  0  0  0  0  0  0  0  0
    8.9962    3.4400    0.0000 N   0  0  0  0  0  0  0  0  0  0  0  0
    5.5321    6.4400    0.0000 N   0  0  0  0  0  0  0  0  0  0  0  0
   11.5942   -0.0600    0.0000 N   0  0  0  0  0  0  0  0  0  0  0  0
    8.9962    4.4400    0.0000 C   0  0  1  0  0  0  0  0  0  0  0  0
    9.8622    4.9400    0.0000 C   0  0  0  0  0  0  0  0  0  0  0  0
    6.3981    4.9400    0.0000 C   0  0  1  0  0  0  0  0  0  0  0  0
    8.1301    4.9400    0.0000 C   0  0  0  0  0  0  0  0  0  0  0  0
    5.5321    4.4400    0.0000 C   0  0  0  0  0  0  0  0  0  0  0  0
   10.7282    4.4400    0.0000 C   0  0  0  0  0  0  0  0  0  0  0  0
   11.5942    4.9400    0.0000 C   0  0  0  0  0  0  0  0  0  0  0  0
    9.8622    5.9400    0.0000 C   0  0  0  0  0  0  0  0  0  0  0  0
   11.5942    5.9400    0.0000 C   0  0  0  0  0  0  0  0  0  0  0  0
    4.6660    4.9400    0.0000 C   0  0  0  0  0  0  0  0  0  0  0  0
    3.8000    4.4400    0.0000 C   0  0  0  0  0  0  0  0  0  0  0  0
   10.7282    6.4400    0.0000 C   0  0  0  0  0  0  0  0  0  0  0  0
    5.5321    3.4400    0.0000 C   0  0  0  0  0  0  0  0  0  0  0  0
    9.8622    2.9400    0.0000 C   0  0  0  0  0  0  0  0  0  0  0  0
    3.8000    3.4400    0.0000 C   0  0  0  0  0  0  0  0  0  0  0  0
    6.3981    5.9400    0.0000 C   0  0  0  0  0  0  0  0  0  0  0  0
    9.8622    1.9400    0.0000 C   0  0  0  0  0  0  0  0  0  0  0  0
    4.6660    2.9400    0.0000 C   0  0  0  0  0  0  0  0  0  0  0  0
   12.4882    4.4053    0.0000 C   0  0  0  0  0  0  0  0  0  0  0  0
   12.4882    6.4747    0.0000 C   0  0  0  0  0  0  0  0  0  0  0  0
   10.7282    1.4400    0.0000 C   0  0  0  0  0  0  0  0  0  0  0  0
    2.9061    4.9747    0.0000 C   0  0  0  0  0  0  0  0  0  0  0  0
    2.9061    2.9053    0.0000 C   0  0  0  0  0  0  0  0  0  0  0  0
   13.3942    4.9192    0.0000 C   0  0  0  0  0  0  0  0  0  0  0  0
   13.3942    5.9608    0.0000 C   0  0  0  0  0  0  0  0  0  0  0  0
    2.0000    4.4608    0.0000 C   0  0  0  0  0  0  0  0  0  0  0  0
    2.0000    3.4192    0.0000 C   0  0  0  0  0  0  0  0  0  0  0  0
   10.7282    0.4400    0.0000 C   0  0  0  0  0  0  0  0  0  0  0  0
   11.5942   -1.0600    0.0000 C   0  0  0  0  0  0  0  0  0  0  0  0
   12.4603   -5.5600    0.0000 C   0  0  0  0  0  0  0  0  0  0  0  0
   12.4603   -4.5600    0.0000 C   0  0  0  0  0  0  0  0  0  0  0  0
   13.3263   -6.0600    0.0000 C   0  0  0  0  0  0  0  0  0  0  0  0
   11.5942   -3.0600    0.0000 C   0  0  0  0  0  0  0  0  0  0  0  0
   12.4603   -1.5600    0.0000 C   0  0  0  0  0  0  0  0  0  0  0  0
   10.7282   -1.5600    0.0000 C   0  0  0  0  0  0  0  0  0  0  0  0
   12.4603   -2.5600    0.0000 C   0  0  0  0  0  0  0  0  0  0  0  0
   10.7282   -2.5600    0.0000 C   0  0  0  0  0  0  0  0  0  0  0  0
   13.3263   -7.0600    0.0000 C   0  0  0  0  0  0  0  0  0  0  0  0
    9.5331    4.1300    0.0000 H   0  0  0  0  0  0  0  0  0  0  0  0
    6.3981    4.3200    0.0000 H   0  0  0  0  0  0  0  0  0  0  0  0
    7.2641    3.8200    0.0000 H   0  0  0  0  0  0  0  0  0  0  0  0
    8.4592    3.1300    0.0000 H   0  0  0  0  0  0  0  0  0  0  0  0
   10.7282    3.8200    0.0000 H   0  0  0  0  0  0  0  0  0  0  0  0
    9.3252    6.2500    0.0000 H   0  0  0  0  0  0  0  0  0  0  0  0
    4.6660    5.5600    0.0000 H   0  0  0  0  0  0  0  0  0  0  0  0
   10.7282    7.0600    0.0000 H   0  0  0  0  0  0  0  0  0  0  0  0
    6.0690    3.1300    0.0000 H   0  0  0  0  0  0  0  0  0  0  0  0
    9.2516    2.0477    0.0000 H   0  0  0  0  0  0  0  0  0  0  0  0
    9.6501    1.3574    0.0000 H   0  0  0  0  0  0  0  0  0  0  0  0
    4.6660    2.3200    0.0000 H   0  0  0  0  0  0  0  0  0  0  0  0
   12.4810    3.7854    0.0000 H   0  0  0  0  0  0  0  0  0  0  0  0
   12.4810    7.0946    0.0000 H   0  0  0  0  0  0  0  0  0  0  0  0
   11.3388    1.3323    0.0000 H   0  0  0  0  0  0  0  0  0  0  0  0
   10.9403    2.0226    0.0000 H   0  0  0  0  0  0  0  0  0  0  0  0
    2.9132    5.5946    0.0000 H   0  0  0  0  0  0  0  0  0  0  0  0
    2.9132    2.2854    0.0000 H   0  0  0  0  0  0  0  0  0  0  0  0
   13.9300    4.6071    0.0000 H   0  0  0  0  0  0  0  0  0  0  0  0
   13.9300    6.2729    0.0000 H   0  0  0  0  0  0  0  0  0  0  0  0
    1.4643    4.7729    0.0000 H   0  0  0  0  0  0  0  0  0  0  0  0
    1.4643    3.1071    0.0000 H   0  0  0  0  0  0  0  0  0  0  0  0
    5.5321    7.0600    0.0000 H   0  0  0  0  0  0  0  0  0  0  0  0
    4.9951    6.1300    0.0000 H   0  0  0  0  0  0  0  0  0  0  0  0
   12.1312    0.2500    0.0000 H   0  0  0  0  0  0  0  0  0  0  0  0
   11.8497   -5.4523    0.0000 H   0  0  0  0  0  0  0  0  0  0  0  0
   12.2482   -6.1426    0.0000 H   0  0  0  0  0  0  0  0  0  0  0  0
   13.0708   -4.6677    0.0000 H   0  0  0  0  0  0  0  0  0  0  0  0
   12.6723   -3.9774    0.0000 H   0  0  0  0  0  0  0  0  0  0  0  0
   13.9369   -6.1677    0.0000 H   0  0  0  0  0  0  0  0  0  0  0  0
   13.5383   -5.4774    0.0000 H   0  0  0  0  0  0  0  0  0  0  0  0
   12.9972   -1.2500    0.0000 H   0  0  0  0  0  0  0  0  0  0  0  0
   10.1913   -1.2500    0.0000 H   0  0  0  0  0  0  0  0  0  0  0  0
   12.9972   -2.8700    0.0000 H   0  0  0  0  0  0  0  0  0  0  0  0
   10.1913   -2.8700    0.0000 H   0  0  0  0  0  0  0  0  0  0  0  0
   12.7063   -7.0600    0.0000 H   0  0  0  0  0  0  0  0  0  0  0  0
   13.3263   -7.6800    0.0000 H   0  0  0  0  0  0  0  0  0  0  0  0
   13.9463   -7.0600    0.0000 H   0  0  0  0  0  0  0  0  0  0  0  0
  1 13  2  0  0  0  0
  2 23  2  0  0  0  0
  3 25  2  0  0  0  0
  4 40  1  0  0  0  0
  4 42  1  0  0  0  0
  5 37  2  0  0  0  0
 12  6  1  1  0  0  0
  6 13  1  0  0  0  0
  6 50  1  0  0  0  0
 10  7  1  6  0  0  0
  7 23  1  0  0  0  0
  7 51  1  0  0  0  0
  8 25  1  0  0  0  0
  8 70  1  0  0  0  0
  8 71  1  0  0  0  0
  9 37  1  0  0  0  0
  9 38  1  0  0  0  0
  9 72  1  0  0  0  0
 10 11  1  0  0  0  0
 10 13  1  0  0  0  0
 10 48  1  0  0  0  0
 11 15  2  0  0  0  0
 11 17  1  0  0  0  0
 12 14  1  0  0  0  0
 12 25  1  0  0  0  0
 12 49  1  0  0  0  0
 14 19  2  0  0  0  0
 14 22  1  0  0  0  0
 15 16  1  0  0  0  0
 15 52  1  0  0  0  0
 16 18  1  0  0  0  0
 16 28  2  0  0  0  0
 17 21  2  0  0  0  0
 17 53  1  0  0  0  0
 18 21  1  0  0  0  0
 18 29  2  0  0  0  0
 19 20  1  0  0  0  0
 19 54  1  0  0  0  0
 20 24  1  0  0  0  0
 20 31  2  0  0  0  0
 21 55  1  0  0  0  0
 22 27  2  0  0  0  0
 22 56  1  0  0  0  0
 23 26  1  0  0  0  0
 24 27  1  0  0  0  0
 24 32  2  0  0  0  0
 26 30  1  0  0  0  0
 26 57  1  0  0  0  0
 26 58  1  0  0  0  0
 27 59  1  0  0  0  0
 28 33  1  0  0  0  0
 28 60  1  0  0  0  0
 29 34  1  0  0  0  0
 29 61  1  0  0  0  0
 30 37  1  0  0  0  0
 30 62  1  0  0  0  0
 30 63  1  0  0  0  0
 31 35  1  0  0  0  0
 31 64  1  0  0  0  0
 32 36  1  0  0  0  0
 32 65  1  0  0  0  0
 33 34  2  0  0  0  0
 33 66  1  0  0  0  0
 34 67  1  0  0  0  0
 35 36  2  0  0  0  0
 35 68  1  0  0  0  0
 36 69  1  0  0  0  0
 38 43  2  0  0  0  0
 38 44  1  0  0  0  0
 39 40  1  0  0  0  0
 39 41  1  0  0  0  0
 39 73  1  0  0  0  0
 39 74  1  0  0  0  0
 40 75  1  0  0  0  0
 40 76  1  0  0  0  0
 41 47  1  0  0  0  0
 41 77  1  0  0  0  0
 41 78  1  0  0  0  0
 42 45  2  0  0  0  0
 42 46  1  0  0  0  0
 43 45  1  0  0  0  0
 43 79  1  0  0  0  0
 44 46  2  0  0  0  0
 44 80  1  0  0  0  0
 45 81  1  0  0  0  0
 46 82  1  0  0  0  0
 47 83  1  0  0  0  0
 47 84  1  0  0  0  0
 47 85  1  0  0  0  0
M  END
> <PUBCHEM_COMPOUND_CID>
70689760

> <PUBCHEM_COMPOUND_CANONICALIZED>
1

> <PUBCHEM_CACTVS_COMPLEXITY>
1050

> <PUBCHEM_CACTVS_HBOND_ACCEPTOR>
5

> <PUBCHEM_CACTVS_HBOND_DONOR>
4

> <PUBCHEM_CACTVS_ROTATABLE_BOND>
14

> <PUBCHEM_CACTVS_SUBSKEYS>
AAADcfB/uAAAAAAAAAAAAAAAAAAAAAAAAAAwYMGDAAAAAADBVAAAHgAQAAAADCzhmAYyxsLABACIAiVSUACCCAAhIgAIiIGObIgMZjLEtbuWOCjk1hHI6Ae9yMCOwEACAAAQAACAgAQAACAAAAAAAAAAAA==

> <PUBCHEM_IUPAC_OPENEYE_NAME>
N'-[(1S)-2-[[(1S)-2-amino-1-(2-naphthyl)-2-oxo-ethyl]amino]-1-(2-naphthyl)-2-oxo-ethyl]-N-(4-butoxyphenyl)butanediamide

> <PUBCHEM_IUPAC_CAS_NAME>
N'-[(1S)-2-[[(1S)-2-amino-1-(2-naphthalenyl)-2-oxoethyl]amino]-1-(2-naphthalenyl)-2-oxoethyl]-N-(4-butoxyphenyl)butanediamide

> <PUBCHEM_IUPAC_NAME_MARKUP>
<I>N</I>&apos;-[(1<I>S</I>)-2-[[(1<I>S</I>)-2-amino-1-naphthalen-2-yl-2-oxoethyl]amino]-1-naphthalen-2-yl-2-oxoethyl]-<I>N</I>-(4-butoxyphenyl)butanediamide

> <PUBCHEM_IUPAC_NAME>
N'-[(1S)-2-[[(1S)-2-amino-1-naphthalen-2-yl-2-oxoethyl]amino]-1-naphthalen-2-yl-2-oxoethyl]-N-(4-butoxyphenyl)butanediamide

> <PUBCHEM_IUPAC_SYSTEMATIC_NAME>
N'-[(1S)-2-[[(1S)-2-azanyl-1-naphthalen-2-yl-2-oxidanylidene-ethyl]amino]-1-naphthalen-2-yl-2-oxidanylidene-ethyl]-N-(4-butoxyphenyl)butanediamide

> <PUBCHEM_IUPAC_TRADITIONAL_NAME>
N'-[(1S)-2-[[(1S)-2-amino-2-keto-1-(2-naphthyl)ethyl]amino]-2-keto-1-(2-naphthyl)ethyl]-N-(4-butoxyphenyl)succinamide

> <PUBCHEM_IUPAC_INCHI>
InChI=1S/C38H38N4O5/c1-2-3-22-47-32-18-16-31(17-19-32)40-33(43)20-21-34(44)41-36(30-15-13-26-9-5-7-11-28(26)24-30)38(46)42-35(37(39)45)29-14-12-25-8-4-6-10-27(25)23-29/h4-19,23-24,35-36H,2-3,20-22H2,1H3,(H2,39,45)(H,40,43)(H,41,44)(H,42,46)/t35-,36-/m0/s1

> <PUBCHEM_IUPAC_INCHIKEY>
LJAGKUYVGJWXQG-ZPGRZCPFSA-N

> <PUBCHEM_XLOGP3_AA>
5.7

> <PUBCHEM_EXACT_MASS>
630.28422033

> <PUBCHEM_MOLECULAR_FORMULA>
C38H38N4O5

> <PUBCHEM_MOLECULAR_WEIGHT>
630.7

> <PUBCHEM_OPENEYE_CAN_SMILES>
CCCCOC1=CC=C(C=C1)NC(=O)CCC(=O)NC(C2=CC3=CC=CC=C3C=C2)C(=O)NC(C4=CC5=CC=CC=C5C=C4)C(=O)N

> <PUBCHEM_OPENEYE_ISO_SMILES>
CCCCOC1=CC=C(C=C1)NC(=O)CCC(=O)N[C@@H](C2=CC3=CC=CC=C3C=C2)C(=O)N[C@@H](C4=CC5=CC=CC=C5C=C4)C(=O)N

> <PUBCHEM_CACTVS_TPSA>
140

> <PUBCHEM_MONOISOTOPIC_WEIGHT>
630.28422033

> <PUBCHEM_TOTAL_CHARGE>
0

> <PUBCHEM_HEAVY_ATOM_COUNT>
47

> <PUBCHEM_ATOM_DEF_STEREO_COUNT>
2

> <PUBCHEM_ATOM_UDEF_STEREO_COUNT>
0

> <PUBCHEM_BOND_DEF_STEREO_COUNT>
0

> <PUBCHEM_BOND_UDEF_STEREO_COUNT>
0

> <PUBCHEM_ISOTOPIC_ATOM_COUNT>
0

> <PUBCHEM_COMPONENT_COUNT>
1

> <PUBCHEM_CACTVS_TAUTO_COUNT>
-1

> <PUBCHEM_COORDINATE_TYPE>
1
5
255

> <PUBCHEM_BONDANNOTATIONS>
11  15  8
11  17  8
14  19  8
14  22  8
15  16  8
16  18  8
16  28  8
17  21  8
18  21  8
18  29  8
19  20  8
20  24  8
20  31  8
22  27  8
24  27  8
24  32  8
28  33  8
29  34  8
31  35  8
32  36  8
33  34  8
35  36  8
38  43  8
38  44  8
42  45  8
42  46  8
43  45  8
44  46  8
12  6  5
10  7  6

$$$$
