145958385
  -OEChem-02152210422D

 77 80  0     1  0  0  0  0  0999 V2000
    2.5369   -1.4760    0.0000 O   0  0  0  0  0  0  0  0  0  0  0  0
    5.1350   -1.9760    0.0000 O   0  0  0  0  0  0  0  0  0  0  0  0
    3.4030   -1.9760    0.0000 O   0  0  0  0  0  0  0  0  0  0  0  0
    8.7593   -5.4304    0.0000 O   0  0  0  0  0  0  0  0  0  0  0  0
    6.1056   -4.4705    0.0000 N   0  0  0  0  0  0  0  0  0  0  0  0
    7.5837   -3.8124    0.0000 N   0  0  0  0  0  0  0  0  0  0  0  0
    7.0837   -4.6784    0.0000 N   0  0  0  0  0  0  0  0  0  0  0  0
    5.1350    3.0240    0.0000 C   0  0  1  0  0  0  0  0  0  0  0  0
    5.1350    4.0240    0.0000 C   0  0  2  0  0  0  0  0  0  0  0  0
    6.0290    4.5587    0.0000 C   0  0  0  0  0  0  0  0  0  0  0  0
    4.2690    2.5240    0.0000 C   0  0  3  0  0  0  0  0  0  0  0  0
    6.0290    2.4894    0.0000 C   0  0  0  0  0  0  0  0  0  0  0  0
    4.2690    4.5240    0.0000 C   0  0  0  0  0  0  0  0  0  0  0  0
    6.9350    4.0448    0.0000 C   0  0  0  0  0  0  0  0  0  0  0  0
    6.9350    3.0032    0.0000 C   0  0  0  0  0  0  0  0  0  0  0  0
    5.1350    2.0240    0.0000 C   0  0  0  0  0  0  0  0  0  0  0  0
    3.4030    4.0240    0.0000 C   0  0  0  0  0  0  0  0  0  0  0  0
    3.4030    3.0240    0.0000 C   0  0  0  0  0  0  0  0  0  0  0  0
    6.5189    5.4304    0.0000 C   0  0  0  0  0  0  0  0  0  0  0  0
    5.5190    5.4189    0.0000 C   0  0  0  0  0  0  0  0  0  0  0  0
    4.2690    1.5240    0.0000 C   0  0  0  0  0  0  0  0  0  0  0  0
    2.5369    2.5240    0.0000 C   0  0  0  0  0  0  0  0  0  0  0  0
    3.4030    1.0240    0.0000 C   0  0  0  0  0  0  0  0  0  0  0  0
    3.4030    0.0240    0.0000 C   0  0  0  0  0  0  0  0  0  0  0  0
    4.2690   -0.4760    0.0000 C   0  0  0  0  0  0  0  0  0  0  0  0
    2.5369   -0.4760    0.0000 C   0  0  0  0  0  0  0  0  0  0  0  0
    4.2690   -1.4760    0.0000 C   0  0  0  0  0  0  0  0  0  0  0  0
    5.1350   -2.9760    0.0000 C   0  0  0  0  0  0  0  0  0  0  0  0
    6.0010   -3.4760    0.0000 C   0  0  0  0  0  0  0  0  0  0  0  0
    6.9146   -3.0692    0.0000 C   0  0  0  0  0  0  0  0  0  0  0  0
    8.5782   -3.7079    0.0000 C   0  0  0  0  0  0  0  0  0  0  0  0
    9.1660   -4.5169    0.0000 C   0  0  0  0  0  0  0  0  0  0  0  0
   10.1605   -4.4124    0.0000 C   0  0  0  0  0  0  0  0  0  0  0  0
   10.5673   -3.4988    0.0000 C   0  0  0  0  0  0  0  0  0  0  0  0
   10.7483   -5.2214    0.0000 C   0  0  0  0  0  0  0  0  0  0  0  0
   11.5618   -3.3943    0.0000 C   0  0  0  0  0  0  0  0  0  0  0  0
   11.7428   -5.1168    0.0000 C   0  0  0  0  0  0  0  0  0  0  0  0
   12.1496   -4.2033    0.0000 C   0  0  0  0  0  0  0  0  0  0  0  0
    5.1285    4.8740    0.0000 H   0  0  0  0  0  0  0  0  0  0  0  0
    3.7320    2.2140    0.0000 H   0  0  0  0  0  0  0  0  0  0  0  0
    5.6244    2.0196    0.0000 H   0  0  0  0  0  0  0  0  0  0  0  0
    6.4226    2.0103    0.0000 H   0  0  0  0  0  0  0  0  0  0  0  0
    4.6675    4.9990    0.0000 H   0  0  0  0  0  0  0  0  0  0  0  0
    3.8705    4.9990    0.0000 H   0  0  0  0  0  0  0  0  0  0  0  0
    7.5459    3.9387    0.0000 H   0  0  0  0  0  0  0  0  0  0  0  0
    7.1441    4.6285    0.0000 H   0  0  0  0  0  0  0  0  0  0  0  0
    7.1441    2.4195    0.0000 H   0  0  0  0  0  0  0  0  0  0  0  0
    7.5459    3.1093    0.0000 H   0  0  0  0  0  0  0  0  0  0  0  0
    4.5150    2.0240    0.0000 H   0  0  0  0  0  0  0  0  0  0  0  0
    5.1350    1.4040    0.0000 H   0  0  0  0  0  0  0  0  0  0  0  0
    5.7550    2.0240    0.0000 H   0  0  0  0  0  0  0  0  0  0  0  0
    3.1909    4.6066    0.0000 H   0  0  0  0  0  0  0  0  0  0  0  0
    2.7924    3.9164    0.0000 H   0  0  0  0  0  0  0  0  0  0  0  0
    7.0594    5.1267    0.0000 H   0  0  0  0  0  0  0  0  0  0  0  0
    6.8227    5.9709    0.0000 H   0  0  0  0  0  0  0  0  0  0  0  0
    5.9784    5.7342    0.0000 H   0  0  0  0  0  0  0  0  0  0  0  0
    6.0523    5.7350    0.0000 H   0  0  0  0  0  0  0  0  0  0  0  0
    5.2028    5.9522    0.0000 H   0  0  0  0  0  0  0  0  0  0  0  0
    4.9857    5.1027    0.0000 H   0  0  0  0  0  0  0  0  0  0  0  0
    4.4810    0.9414    0.0000 H   0  0  0  0  0  0  0  0  0  0  0  0
    4.8796    1.6317    0.0000 H   0  0  0  0  0  0  0  0  0  0  0  0
    2.0000    2.8340    0.0000 H   0  0  0  0  0  0  0  0  0  0  0  0
    2.5369    1.9040    0.0000 H   0  0  0  0  0  0  0  0  0  0  0  0
    2.8660    1.3340    0.0000 H   0  0  0  0  0  0  0  0  0  0  0  0
    4.8796   -0.5836    0.0000 H   0  0  0  0  0  0  0  0  0  0  0  0
    4.4810    0.1066    0.0000 H   0  0  0  0  0  0  0  0  0  0  0  0
    2.0000   -0.1660    0.0000 H   0  0  0  0  0  0  0  0  0  0  0  0
    4.5244   -2.8683    0.0000 H   0  0  0  0  0  0  0  0  0  0  0  0
    4.9230   -3.5586    0.0000 H   0  0  0  0  0  0  0  0  0  0  0  0
    7.0435   -2.4628    0.0000 H   0  0  0  0  0  0  0  0  0  0  0  0
    9.1355   -3.4361    0.0000 H   0  0  0  0  0  0  0  0  0  0  0  0
    8.4073   -3.1119    0.0000 H   0  0  0  0  0  0  0  0  0  0  0  0
   10.2029   -2.9972    0.0000 H   0  0  0  0  0  0  0  0  0  0  0  0
   10.4962   -5.7878    0.0000 H   0  0  0  0  0  0  0  0  0  0  0  0
   11.8140   -2.8279    0.0000 H   0  0  0  0  0  0  0  0  0  0  0  0
   12.1073   -5.6184    0.0000 H   0  0  0  0  0  0  0  0  0  0  0  0
   12.7662   -4.1385    0.0000 H   0  0  0  0  0  0  0  0  0  0  0  0
  1 26  2  0  0  0  0
  2 27  1  0  0  0  0
  2 28  1  0  0  0  0
  3 27  2  0  0  0  0
  4 32  2  0  0  0  0
  5  7  2  0  0  0  0
  5 29  1  0  0  0  0
  6  7  1  0  0  0  0
  6 30  1  0  0  0  0
  6 31  1  0  0  0  0
  8  9  1  0  0  0  0
  8 11  1  0  0  0  0
  8 12  1  0  0  0  0
  8 16  1  1  0  0  0
  9 10  1  0  0  0  0
  9 13  1  0  0  0  0
  9 39  1  6  0  0  0
 10 14  1  0  0  0  0
 10 19  1  0  0  0  0
 10 20  1  0  0  0  0
 11 18  1  0  0  0  0
 11 21  1  0  0  0  0
 11 40  1  0  0  0  0
 12 15  1  0  0  0  0
 12 41  1  0  0  0  0
 12 42  1  0  0  0  0
 13 17  1  0  0  0  0
 13 43  1  0  0  0  0
 13 44  1  0  0  0  0
 14 15  1  0  0  0  0
 14 45  1  0  0  0  0
 14 46  1  0  0  0  0
 15 47  1  0  0  0  0
 15 48  1  0  0  0  0
 16 49  1  0  0  0  0
 16 50  1  0  0  0  0
 16 51  1  0  0  0  0
 17 18  1  0  0  0  0
 17 52  1  0  0  0  0
 17 53  1  0  0  0  0
 18 22  2  0  0  0  0
 19 54  1  0  0  0  0
 19 55  1  0  0  0  0
 19 56  1  0  0  0  0
 20 57  1  0  0  0  0
 20 58  1  0  0  0  0
 20 59  1  0  0  0  0
 21 23  1  0  0  0  0
 21 60  1  0  0  0  0
 21 61  1  0  0  0  0
 22 62  1  0  0  0  0
 22 63  1  0  0  0  0
 23 24  2  0  0  0  0
 23 64  1  0  0  0  0
 24 25  1  0  0  0  0
 24 26  1  0  0  0  0
 25 27  1  0  0  0  0
 25 65  1  0  0  0  0
 25 66  1  0  0  0  0
 26 67  1  0  0  0  0
 28 29  1  0  0  0  0
 28 68  1  0  0  0  0
 28 69  1  0  0  0  0
 29 30  2  0  0  0  0
 30 70  1  0  0  0  0
 31 32  1  0  0  0  0
 31 71  1  0  0  0  0
 31 72  1  0  0  0  0
 32 33  1  0  0  0  0
 33 34  2  0  0  0  0
 33 35  1  0  0  0  0
 34 36  1  0  0  0  0
 34 73  1  0  0  0  0
 35 37  2  0  0  0  0
 35 74  1  0  0  0  0
 36 38  2  0  0  0  0
 36 75  1  0  0  0  0
 37 38  1  0  0  0  0
 37 76  1  0  0  0  0
 38 77  1  0  0  0  0
M  END
> <PUBCHEM_COMPOUND_CID>
145958385

> <PUBCHEM_COMPOUND_CANONICALIZED>
1

> <PUBCHEM_CACTVS_COMPLEXITY>
922

> <PUBCHEM_CACTVS_HBOND_ACCEPTOR>
6

> <PUBCHEM_CACTVS_HBOND_DONOR>
0

> <PUBCHEM_CACTVS_ROTATABLE_BOND>
11

> <PUBCHEM_CACTVS_SUBSKEYS>
AAADcfB7OAAAAAAAAAAAAAAAAAAAAWAAAAAwYMAAAAAAAADBwAAAHgAIAAAADwzhngY+iJIIBACqA7z3zAQCBAQ1kgAY2AG4eMgKZDLAtTmXIQAmwADIqYcbiMCPgAAAAAAAAAAAAAQAACAAAAAAAAAAAA==

> <PUBCHEM_IUPAC_OPENEYE_NAME>
(1-phenacyltriazol-4-yl)methyl (E)-5-[(4aS,8aS)-5,5,8a-trimethyl-2-methylene-decalin-1-yl]-3-formyl-pent-3-enoate

> <PUBCHEM_IUPAC_CAS_NAME>
(E)-5-[(4aS,8aS)-5,5,8a-trimethyl-2-methylene-3,4,4a,6,7,8-hexahydro-1H-naphthalen-1-yl]-3-formyl-3-pentenoic acid (1-phenacyl-4-triazolyl)methyl ester

> <PUBCHEM_IUPAC_NAME_MARKUP>
(1-phenacyltriazol-4-yl)methyl (<I>E</I>)-5-[(4<I>a</I><I>S</I>,8<I>a</I><I>S</I>)-5,5,8<I>a</I>-trimethyl-2-methylidene-3,4,4<I>a</I>,6,7,8-hexahydro-1<I>H</I>-naphthalen-1-yl]-3-formylpent-3-enoate

> <PUBCHEM_IUPAC_NAME>
(1-phenacyltriazol-4-yl)methyl (E)-5-[(4aS,8aS)-5,5,8a-trimethyl-2-methylidene-3,4,4a,6,7,8-hexahydro-1H-naphthalen-1-yl]-3-formylpent-3-enoate

> <PUBCHEM_IUPAC_SYSTEMATIC_NAME>
(1-phenacyl-1,2,3-triazol-4-yl)methyl (E)-5-[(4aS,8aS)-5,5,8a-trimethyl-2-methylidene-3,4,4a,6,7,8-hexahydro-1H-naphthalen-1-yl]-3-methanoyl-pent-3-enoate

> <PUBCHEM_IUPAC_TRADITIONAL_NAME>
(E)-5-[(4aS,8aS)-5,5,8a-trimethyl-2-methylene-decalin-1-yl]-3-formyl-pent-3-enoic acid (1-phenacyltriazol-4-yl)methyl ester

> <PUBCHEM_IUPAC_INCHI>
InChI=1S/C31H39N3O4/c1-22-11-14-28-30(2,3)15-8-16-31(28,4)26(22)13-12-23(20-35)17-29(37)38-21-25-18-34(33-32-25)19-27(36)24-9-6-5-7-10-24/h5-7,9-10,12,18,20,26,28H,1,8,11,13-17,19,21H2,2-4H3/b23-12+/t26?,28-,31+/m0/s1

> <PUBCHEM_IUPAC_INCHIKEY>
OFNVQGFKKXYXIX-UTNMSYFBSA-N

> <PUBCHEM_XLOGP3_AA>
5.6

> <PUBCHEM_EXACT_MASS>
517.29405673

> <PUBCHEM_MOLECULAR_FORMULA>
C31H39N3O4

> <PUBCHEM_MOLECULAR_WEIGHT>
517.7

> <PUBCHEM_OPENEYE_CAN_SMILES>
CC1(CCCC2(C1CCC(=C)C2CC=C(CC(=O)OCC3=CN(N=N3)CC(=O)C4=CC=CC=C4)C=O)C)C

> <PUBCHEM_OPENEYE_ISO_SMILES>
C[C@]12CCCC([C@@H]1CCC(=C)C2C/C=C(\CC(=O)OCC3=CN(N=N3)CC(=O)C4=CC=CC=C4)/C=O)(C)C

> <PUBCHEM_CACTVS_TPSA>
91.2

> <PUBCHEM_MONOISOTOPIC_WEIGHT>
517.29405673

> <PUBCHEM_TOTAL_CHARGE>
0

> <PUBCHEM_HEAVY_ATOM_COUNT>
38

> <PUBCHEM_ATOM_DEF_STEREO_COUNT>
2

> <PUBCHEM_ATOM_UDEF_STEREO_COUNT>
1

> <PUBCHEM_BOND_DEF_STEREO_COUNT>
1

> <PUBCHEM_BOND_UDEF_STEREO_COUNT>
0

> <PUBCHEM_ISOTOPIC_ATOM_COUNT>
0

> <PUBCHEM_COMPONENT_COUNT>
1

> <PUBCHEM_CACTVS_TAUTO_COUNT>
-1

> <PUBCHEM_COORDINATE_TYPE>
1
5
255

> <PUBCHEM_BONDANNOTATIONS>
11  21  3
29  30  8
33  34  8
33  35  8
34  36  8
35  37  8
36  38  8
37  38  8
5  29  8
5  7  8
6  30  8
6  7  8
8  16  5
9  39  6

$$$$
