145955741
  -OEChem-02142204532D

 87 90  0     1  0  0  0  0  0999 V2000
    2.5369   -0.3147    0.0000 O   0  0  0  0  0  0  0  0  0  0  0  0
    5.1350   -0.8147    0.0000 O   0  0  0  0  0  0  0  0  0  0  0  0
    3.4030   -0.8147    0.0000 O   0  0  0  0  0  0  0  0  0  0  0  0
    7.5837   -2.6511    0.0000 N   0  0  0  0  0  0  0  0  0  0  0  0
    6.1056   -3.3092    0.0000 N   0  0  0  0  0  0  0  0  0  0  0  0
    7.0837   -3.5172    0.0000 N   0  0  0  0  0  0  0  0  0  0  0  0
    5.1350    4.1853    0.0000 C   0  0  1  0  0  0  0  0  0  0  0  0
    5.1350    5.1853    0.0000 C   0  0  2  0  0  0  0  0  0  0  0  0
    6.0290    5.7199    0.0000 C   0  0  0  0  0  0  0  0  0  0  0  0
    4.2690    3.6853    0.0000 C   0  0  3  0  0  0  0  0  0  0  0  0
    6.0290    3.6506    0.0000 C   0  0  0  0  0  0  0  0  0  0  0  0
    4.2690    5.6853    0.0000 C   0  0  0  0  0  0  0  0  0  0  0  0
    6.9350    5.2061    0.0000 C   0  0  0  0  0  0  0  0  0  0  0  0
    6.9350    4.1645    0.0000 C   0  0  0  0  0  0  0  0  0  0  0  0
    5.1350    3.1853    0.0000 C   0  0  0  0  0  0  0  0  0  0  0  0
    3.4030    5.1853    0.0000 C   0  0  0  0  0  0  0  0  0  0  0  0
    3.4030    4.1853    0.0000 C   0  0  0  0  0  0  0  0  0  0  0  0
    6.5189    6.5917    0.0000 C   0  0  0  0  0  0  0  0  0  0  0  0
    5.5190    6.5801    0.0000 C   0  0  0  0  0  0  0  0  0  0  0  0
    4.2690    2.6853    0.0000 C   0  0  0  0  0  0  0  0  0  0  0  0
    2.5369    3.6853    0.0000 C   0  0  0  0  0  0  0  0  0  0  0  0
    3.4030    2.1853    0.0000 C   0  0  0  0  0  0  0  0  0  0  0  0
    3.4030    1.1853    0.0000 C   0  0  0  0  0  0  0  0  0  0  0  0
    4.2690    0.6853    0.0000 C   0  0  0  0  0  0  0  0  0  0  0  0
    2.5369    0.6853    0.0000 C   0  0  0  0  0  0  0  0  0  0  0  0
    4.2690   -0.3147    0.0000 C   0  0  0  0  0  0  0  0  0  0  0  0
    5.1350   -1.8147    0.0000 C   0  0  0  0  0  0  0  0  0  0  0  0
    6.0010   -2.3147    0.0000 C   0  0  0  0  0  0  0  0  0  0  0  0
   10.9294   -5.7827    0.0000 C   0  0  0  0  0  0  0  0  0  0  0  0
   10.3416   -4.9736    0.0000 C   0  0  0  0  0  0  0  0  0  0  0  0
    6.9146   -1.9080    0.0000 C   0  0  0  0  0  0  0  0  0  0  0  0
   11.5172   -6.5917    0.0000 C   0  0  0  0  0  0  0  0  0  0  0  0
   11.7384   -5.1949    0.0000 C   0  0  0  0  0  0  0  0  0  0  0  0
   10.1204   -6.3705    0.0000 C   0  0  0  0  0  0  0  0  0  0  0  0
    8.5782   -2.5466    0.0000 C   0  0  0  0  0  0  0  0  0  0  0  0
    9.1660   -3.3556    0.0000 C   0  0  0  0  0  0  0  0  0  0  0  0
   10.7483   -4.0601    0.0000 C   0  0  0  0  0  0  0  0  0  0  0  0
    9.3471   -5.0782    0.0000 C   0  0  0  0  0  0  0  0  0  0  0  0
   10.1605   -3.2511    0.0000 C   0  0  0  0  0  0  0  0  0  0  0  0
    8.7593   -4.2692    0.0000 C   0  0  0  0  0  0  0  0  0  0  0  0
    5.1285    6.0352    0.0000 H   0  0  0  0  0  0  0  0  0  0  0  0
    3.7320    3.3753    0.0000 H   0  0  0  0  0  0  0  0  0  0  0  0
    5.6244    3.1808    0.0000 H   0  0  0  0  0  0  0  0  0  0  0  0
    6.4226    3.1716    0.0000 H   0  0  0  0  0  0  0  0  0  0  0  0
    4.6675    6.1602    0.0000 H   0  0  0  0  0  0  0  0  0  0  0  0
    3.8705    6.1602    0.0000 H   0  0  0  0  0  0  0  0  0  0  0  0
    7.5459    5.1000    0.0000 H   0  0  0  0  0  0  0  0  0  0  0  0
    7.1441    5.7898    0.0000 H   0  0  0  0  0  0  0  0  0  0  0  0
    7.1441    3.5808    0.0000 H   0  0  0  0  0  0  0  0  0  0  0  0
    7.5459    4.2706    0.0000 H   0  0  0  0  0  0  0  0  0  0  0  0
    4.5150    3.1853    0.0000 H   0  0  0  0  0  0  0  0  0  0  0  0
    5.1350    2.5653    0.0000 H   0  0  0  0  0  0  0  0  0  0  0  0
    5.7550    3.1853    0.0000 H   0  0  0  0  0  0  0  0  0  0  0  0
    3.1909    5.7679    0.0000 H   0  0  0  0  0  0  0  0  0  0  0  0
    2.7924    5.0776    0.0000 H   0  0  0  0  0  0  0  0  0  0  0  0
    7.0594    6.2879    0.0000 H   0  0  0  0  0  0  0  0  0  0  0  0
    6.8227    7.1322    0.0000 H   0  0  0  0  0  0  0  0  0  0  0  0
    5.9784    6.8955    0.0000 H   0  0  0  0  0  0  0  0  0  0  0  0
    6.0523    6.8963    0.0000 H   0  0  0  0  0  0  0  0  0  0  0  0
    5.2028    7.1134    0.0000 H   0  0  0  0  0  0  0  0  0  0  0  0
    4.9857    6.2639    0.0000 H   0  0  0  0  0  0  0  0  0  0  0  0
    4.4810    2.1027    0.0000 H   0  0  0  0  0  0  0  0  0  0  0  0
    4.8796    2.7929    0.0000 H   0  0  0  0  0  0  0  0  0  0  0  0
    2.0000    3.9953    0.0000 H   0  0  0  0  0  0  0  0  0  0  0  0
    2.5369    3.0653    0.0000 H   0  0  0  0  0  0  0  0  0  0  0  0
    2.8660    2.4953    0.0000 H   0  0  0  0  0  0  0  0  0  0  0  0
    4.8796    0.5776    0.0000 H   0  0  0  0  0  0  0  0  0  0  0  0
    4.4810    1.2679    0.0000 H   0  0  0  0  0  0  0  0  0  0  0  0
    2.0000    0.9953    0.0000 H   0  0  0  0  0  0  0  0  0  0  0  0
    4.5244   -1.7071    0.0000 H   0  0  0  0  0  0  0  0  0  0  0  0
    4.9230   -2.3973    0.0000 H   0  0  0  0  0  0  0  0  0  0  0  0
    7.0435   -1.3015    0.0000 H   0  0  0  0  0  0  0  0  0  0  0  0
   11.0156   -6.9561    0.0000 H   0  0  0  0  0  0  0  0  0  0  0  0
   11.8816   -7.0933    0.0000 H   0  0  0  0  0  0  0  0  0  0  0  0
   12.0188   -6.2273    0.0000 H   0  0  0  0  0  0  0  0  0  0  0  0
   12.1028   -5.6965    0.0000 H   0  0  0  0  0  0  0  0  0  0  0  0
   12.2400   -4.8305    0.0000 H   0  0  0  0  0  0  0  0  0  0  0  0
   11.3740   -4.6933    0.0000 H   0  0  0  0  0  0  0  0  0  0  0  0
    9.7559   -5.8689    0.0000 H   0  0  0  0  0  0  0  0  0  0  0  0
    9.6188   -6.7349    0.0000 H   0  0  0  0  0  0  0  0  0  0  0  0
   10.4848   -6.8720    0.0000 H   0  0  0  0  0  0  0  0  0  0  0  0
    9.1355   -2.2748    0.0000 H   0  0  0  0  0  0  0  0  0  0  0  0
    8.4073   -1.9506    0.0000 H   0  0  0  0  0  0  0  0  0  0  0  0
   11.3649   -3.9953    0.0000 H   0  0  0  0  0  0  0  0  0  0  0  0
    9.0949   -5.6446    0.0000 H   0  0  0  0  0  0  0  0  0  0  0  0
   10.4127   -2.6847    0.0000 H   0  0  0  0  0  0  0  0  0  0  0  0
    8.1427   -4.3340    0.0000 H   0  0  0  0  0  0  0  0  0  0  0  0
  1 25  2  0  0  0  0
  2 26  1  0  0  0  0
  2 27  1  0  0  0  0
  3 26  2  0  0  0  0
  4  6  1  0  0  0  0
  4 31  1  0  0  0  0
  4 35  1  0  0  0  0
  5  6  2  0  0  0  0
  5 28  1  0  0  0  0
  7  8  1  0  0  0  0
  7 10  1  0  0  0  0
  7 11  1  0  0  0  0
  7 15  1  1  0  0  0
  8  9  1  0  0  0  0
  8 12  1  0  0  0  0
  8 41  1  6  0  0  0
  9 13  1  0  0  0  0
  9 18  1  0  0  0  0
  9 19  1  0  0  0  0
 10 17  1  0  0  0  0
 10 20  1  0  0  0  0
 10 42  1  0  0  0  0
 11 14  1  0  0  0  0
 11 43  1  0  0  0  0
 11 44  1  0  0  0  0
 12 16  1  0  0  0  0
 12 45  1  0  0  0  0
 12 46  1  0  0  0  0
 13 14  1  0  0  0  0
 13 47  1  0  0  0  0
 13 48  1  0  0  0  0
 14 49  1  0  0  0  0
 14 50  1  0  0  0  0
 15 51  1  0  0  0  0
 15 52  1  0  0  0  0
 15 53  1  0  0  0  0
 16 17  1  0  0  0  0
 16 54  1  0  0  0  0
 16 55  1  0  0  0  0
 17 21  2  0  0  0  0
 18 56  1  0  0  0  0
 18 57  1  0  0  0  0
 18 58  1  0  0  0  0
 19 59  1  0  0  0  0
 19 60  1  0  0  0  0
 19 61  1  0  0  0  0
 20 22  1  0  0  0  0
 20 62  1  0  0  0  0
 20 63  1  0  0  0  0
 21 64  1  0  0  0  0
 21 65  1  0  0  0  0
 22 23  2  0  0  0  0
 22 66  1  0  0  0  0
 23 24  1  0  0  0  0
 23 25  1  0  0  0  0
 24 26  1  0  0  0  0
 24 67  1  0  0  0  0
 24 68  1  0  0  0  0
 25 69  1  0  0  0  0
 27 28  1  0  0  0  0
 27 70  1  0  0  0  0
 27 71  1  0  0  0  0
 28 31  2  0  0  0  0
 29 30  1  0  0  0  0
 29 32  1  0  0  0  0
 29 33  1  0  0  0  0
 29 34  1  0  0  0  0
 30 37  2  0  0  0  0
 30 38  1  0  0  0  0
 31 72  1  0  0  0  0
 32 73  1  0  0  0  0
 32 74  1  0  0  0  0
 32 75  1  0  0  0  0
 33 76  1  0  0  0  0
 33 77  1  0  0  0  0
 33 78  1  0  0  0  0
 34 79  1  0  0  0  0
 34 80  1  0  0  0  0
 34 81  1  0  0  0  0
 35 36  1  0  0  0  0
 35 82  1  0  0  0  0
 35 83  1  0  0  0  0
 36 39  2  0  0  0  0
 36 40  1  0  0  0  0
 37 39  1  0  0  0  0
 37 84  1  0  0  0  0
 38 40  2  0  0  0  0
 38 85  1  0  0  0  0
 39 86  1  0  0  0  0
 40 87  1  0  0  0  0
M  END
> <PUBCHEM_COMPOUND_CID>
145955741

> <PUBCHEM_COMPOUND_CANONICALIZED>
1

> <PUBCHEM_CACTVS_COMPLEXITY>
943

> <PUBCHEM_CACTVS_HBOND_ACCEPTOR>
5

> <PUBCHEM_CACTVS_HBOND_DONOR>
0

> <PUBCHEM_CACTVS_ROTATABLE_BOND>
11

> <PUBCHEM_CACTVS_SUBSKEYS>
AAADcfB/MAAAAAAAAAAAAAAAAAAAAWAAAAAwYMAAAAAAAADBwAAAHgAIAAAADwjhngY+iJIIBACqAzz3zASCBAQxkgAY2AE4fMgKZDLAsRmXIAhmwADIqYcTgMAPwAAAAAAAAACAAAQAACAAAAAAAAAAAA==

> <PUBCHEM_IUPAC_OPENEYE_NAME>
[1-[(4-tert-butylphenyl)methyl]triazol-4-yl]methyl (E)-5-[(4aS,8aS)-5,5,8a-trimethyl-2-methylene-decalin-1-yl]-3-formyl-pent-3-enoate

> <PUBCHEM_IUPAC_CAS_NAME>
(E)-5-[(4aS,8aS)-5,5,8a-trimethyl-2-methylene-3,4,4a,6,7,8-hexahydro-1H-naphthalen-1-yl]-3-formyl-3-pentenoic acid [1-[(4-tert-butylphenyl)methyl]-4-triazolyl]methyl ester

> <PUBCHEM_IUPAC_NAME_MARKUP>
[1-[(4-<I>tert</I>-butylphenyl)methyl]triazol-4-yl]methyl (<I>E</I>)-5-[(4<I>a</I><I>S</I>,8<I>a</I><I>S</I>)-5,5,8<I>a</I>-trimethyl-2-methylidene-3,4,4<I>a</I>,6,7,8-hexahydro-1<I>H</I>-naphthalen-1-yl]-3-formylpent-3-enoate

> <PUBCHEM_IUPAC_NAME>
[1-[(4-tert-butylphenyl)methyl]triazol-4-yl]methyl (E)-5-[(4aS,8aS)-5,5,8a-trimethyl-2-methylidene-3,4,4a,6,7,8-hexahydro-1H-naphthalen-1-yl]-3-formylpent-3-enoate

> <PUBCHEM_IUPAC_SYSTEMATIC_NAME>
[1-[(4-tert-butylphenyl)methyl]-1,2,3-triazol-4-yl]methyl (E)-5-[(4aS,8aS)-5,5,8a-trimethyl-2-methylidene-3,4,4a,6,7,8-hexahydro-1H-naphthalen-1-yl]-3-methanoyl-pent-3-enoate

> <PUBCHEM_IUPAC_TRADITIONAL_NAME>
(E)-5-[(4aS,8aS)-5,5,8a-trimethyl-2-methylene-decalin-1-yl]-3-formyl-pent-3-enoic acid [1-(4-tert-butylbenzyl)triazol-4-yl]methyl ester

> <PUBCHEM_IUPAC_INCHI>
InChI=1S/C34H47N3O3/c1-24-9-16-30-33(5,6)17-8-18-34(30,7)29(24)15-12-26(22-38)19-31(39)40-23-28-21-37(36-35-28)20-25-10-13-27(14-11-25)32(2,3)4/h10-14,21-22,29-30H,1,8-9,15-20,23H2,2-7H3/b26-12+/t29?,30-,34+/m0/s1

> <PUBCHEM_IUPAC_INCHIKEY>
STSFTQNHSYCMAZ-GLTLSONMSA-N

> <PUBCHEM_XLOGP3_AA>
7.4

> <PUBCHEM_EXACT_MASS>
545.36174237

> <PUBCHEM_MOLECULAR_FORMULA>
C34H47N3O3

> <PUBCHEM_MOLECULAR_WEIGHT>
545.8

> <PUBCHEM_OPENEYE_CAN_SMILES>
CC1(CCCC2(C1CCC(=C)C2CC=C(CC(=O)OCC3=CN(N=N3)CC4=CC=C(C=C4)C(C)(C)C)C=O)C)C

> <PUBCHEM_OPENEYE_ISO_SMILES>
C[C@]12CCCC([C@@H]1CCC(=C)C2C/C=C(\CC(=O)OCC3=CN(N=N3)CC4=CC=C(C=C4)C(C)(C)C)/C=O)(C)C

> <PUBCHEM_CACTVS_TPSA>
74.1

> <PUBCHEM_MONOISOTOPIC_WEIGHT>
545.36174237

> <PUBCHEM_TOTAL_CHARGE>
0

> <PUBCHEM_HEAVY_ATOM_COUNT>
40

> <PUBCHEM_ATOM_DEF_STEREO_COUNT>
2

> <PUBCHEM_ATOM_UDEF_STEREO_COUNT>
1

> <PUBCHEM_BOND_DEF_STEREO_COUNT>
1

> <PUBCHEM_BOND_UDEF_STEREO_COUNT>
0

> <PUBCHEM_ISOTOPIC_ATOM_COUNT>
0

> <PUBCHEM_COMPONENT_COUNT>
1

> <PUBCHEM_CACTVS_TAUTO_COUNT>
-1

> <PUBCHEM_COORDINATE_TYPE>
1
5
255

> <PUBCHEM_BONDANNOTATIONS>
10  20  3
28  31  8
30  37  8
30  38  8
36  39  8
36  40  8
37  39  8
38  40  8
4  31  8
4  6  8
5  28  8
5  6  8
7  15  5
8  41  6

$$$$
