10109540
  -OEChem-02152223482D

 48 50  0     0  0  0  0  0  0999 V2000
    2.1340   -0.8807    0.0000 O   0  0  0  0  0  0  0  0  0  0  0  0
    4.3660    4.6581    0.0000 O   0  0  0  0  0  0  0  0  0  0  0  0
    2.7782    5.4672    0.0000 O   0  0  0  0  0  0  0  0  0  0  0  0
    5.6261    3.3981    0.0000 O   0  0  0  0  0  0  0  0  0  0  0  0
    3.8660   -0.8807    0.0000 N   0  0  0  0  0  0  0  0  0  0  0  0
    3.8660    3.1193    0.0000 N   0  0  0  0  0  0  0  0  0  0  0  0
    3.0570    3.7071    0.0000 N   0  0  0  0  0  0  0  0  0  0  0  0
    3.0000   -5.3807    0.0000 C   0  0  0  0  0  0  0  0  0  0  0  0
    3.0000   -4.3807    0.0000 C   0  0  0  0  0  0  0  0  0  0  0  0
    3.0000   -6.3807    0.0000 C   0  0  0  0  0  0  0  0  0  0  0  0
    2.0000   -5.3807    0.0000 C   0  0  0  0  0  0  0  0  0  0  0  0
    4.0000   -5.3807    0.0000 C   0  0  0  0  0  0  0  0  0  0  0  0
    2.1340   -3.8807    0.0000 C   0  0  0  0  0  0  0  0  0  0  0  0
    3.8660   -3.8807    0.0000 C   0  0  0  0  0  0  0  0  0  0  0  0
    3.0000   -2.3807    0.0000 C   0  0  0  0  0  0  0  0  0  0  0  0
    2.1340   -2.8807    0.0000 C   0  0  0  0  0  0  0  0  0  0  0  0
    3.8660   -2.8807    0.0000 C   0  0  0  0  0  0  0  0  0  0  0  0
    3.0000   -1.3807    0.0000 C   0  0  0  0  0  0  0  0  0  0  0  0
    3.8660    0.1193    0.0000 C   0  0  0  0  0  0  0  0  0  0  0  0
    3.8660    2.1193    0.0000 C   0  0  0  0  0  0  0  0  0  0  0  0
    4.7320    0.6193    0.0000 C   0  0  0  0  0  0  0  0  0  0  0  0
    3.0000    0.6193    0.0000 C   0  0  0  0  0  0  0  0  0  0  0  0
    4.7320    1.6193    0.0000 C   0  0  0  0  0  0  0  0  0  0  0  0
    3.0000    1.6193    0.0000 C   0  0  0  0  0  0  0  0  0  0  0  0
    4.6750    3.7071    0.0000 C   0  0  0  0  0  0  0  0  0  0  0  0
    3.3660    4.6581    0.0000 C   0  0  0  0  0  0  0  0  0  0  0  0
    3.1850    6.3807    0.0000 C   0  0  0  0  0  0  0  0  0  0  0  0
    2.3800   -6.3807    0.0000 H   0  0  0  0  0  0  0  0  0  0  0  0
    3.0000   -7.0007    0.0000 H   0  0  0  0  0  0  0  0  0  0  0  0
    3.6200   -6.3807    0.0000 H   0  0  0  0  0  0  0  0  0  0  0  0
    2.0000   -4.7607    0.0000 H   0  0  0  0  0  0  0  0  0  0  0  0
    1.3800   -5.3807    0.0000 H   0  0  0  0  0  0  0  0  0  0  0  0
    2.0000   -6.0007    0.0000 H   0  0  0  0  0  0  0  0  0  0  0  0
    4.0000   -6.0007    0.0000 H   0  0  0  0  0  0  0  0  0  0  0  0
    4.6200   -5.3807    0.0000 H   0  0  0  0  0  0  0  0  0  0  0  0
    4.0000   -4.7607    0.0000 H   0  0  0  0  0  0  0  0  0  0  0  0
    1.5970   -4.1907    0.0000 H   0  0  0  0  0  0  0  0  0  0  0  0
    4.4030   -4.1907    0.0000 H   0  0  0  0  0  0  0  0  0  0  0  0
    1.5970   -2.5707    0.0000 H   0  0  0  0  0  0  0  0  0  0  0  0
    4.4030   -2.5707    0.0000 H   0  0  0  0  0  0  0  0  0  0  0  0
    4.4030   -1.1907    0.0000 H   0  0  0  0  0  0  0  0  0  0  0  0
    5.2690    0.3093    0.0000 H   0  0  0  0  0  0  0  0  0  0  0  0
    2.4631    0.3093    0.0000 H   0  0  0  0  0  0  0  0  0  0  0  0
    5.2690    1.9293    0.0000 H   0  0  0  0  0  0  0  0  0  0  0  0
    2.4631    1.9293    0.0000 H   0  0  0  0  0  0  0  0  0  0  0  0
    3.7514    6.1285    0.0000 H   0  0  0  0  0  0  0  0  0  0  0  0
    3.4372    6.9471    0.0000 H   0  0  0  0  0  0  0  0  0  0  0  0
    2.6186    6.6329    0.0000 H   0  0  0  0  0  0  0  0  0  0  0  0
  1 18  2  0  0  0  0
  2 25  1  0  0  0  0
  2 26  1  0  0  0  0
  3 26  1  0  0  0  0
  3 27  1  0  0  0  0
  4 25  2  0  0  0  0
  5 18  1  0  0  0  0
  5 19  1  0  0  0  0
  5 41  1  0  0  0  0
  6  7  1  0  0  0  0
  6 20  1  0  0  0  0
  6 25  1  0  0  0  0
  7 26  2  0  0  0  0
  8  9  1  0  0  0  0
  8 10  1  0  0  0  0
  8 11  1  0  0  0  0
  8 12  1  0  0  0  0
  9 13  2  0  0  0  0
  9 14  1  0  0  0  0
 10 28  1  0  0  0  0
 10 29  1  0  0  0  0
 10 30  1  0  0  0  0
 11 31  1  0  0  0  0
 11 32  1  0  0  0  0
 11 33  1  0  0  0  0
 12 34  1  0  0  0  0
 12 35  1  0  0  0  0
 12 36  1  0  0  0  0
 13 16  1  0  0  0  0
 13 37  1  0  0  0  0
 14 17  2  0  0  0  0
 14 38  1  0  0  0  0
 15 16  2  0  0  0  0
 15 17  1  0  0  0  0
 15 18  1  0  0  0  0
 16 39  1  0  0  0  0
 17 40  1  0  0  0  0
 19 21  2  0  0  0  0
 19 22  1  0  0  0  0
 20 23  2  0  0  0  0
 20 24  1  0  0  0  0
 21 23  1  0  0  0  0
 21 42  1  0  0  0  0
 22 24  2  0  0  0  0
 22 43  1  0  0  0  0
 23 44  1  0  0  0  0
 24 45  1  0  0  0  0
 27 46  1  0  0  0  0
 27 47  1  0  0  0  0
 27 48  1  0  0  0  0
M  END
> <PUBCHEM_COMPOUND_CID>
10109540

> <PUBCHEM_COMPOUND_CANONICALIZED>
1

> <PUBCHEM_CACTVS_COMPLEXITY>
583

> <PUBCHEM_CACTVS_HBOND_ACCEPTOR>
5

> <PUBCHEM_CACTVS_HBOND_DONOR>
1

> <PUBCHEM_CACTVS_ROTATABLE_BOND>
5

> <PUBCHEM_CACTVS_SUBSKEYS>
AAADceB7OAAAAAAAAAAAAAAAAAAAAQAAAAAwYAAAAAAAAAABQAAAHgAYAAAADgiBmAIyyILABACoAiVSWACSBAAlAgAaiAEAZMgYIDLAlZGkIQhglADIyYcYiMCPwACAAAAAAACAAQAAAAAAAAAAAAAAAA==

> <PUBCHEM_IUPAC_OPENEYE_NAME>
4-tert-butyl-N-[4-(5-methoxy-2-oxo-1,3,4-oxadiazol-3-yl)phenyl]benzamide

> <PUBCHEM_IUPAC_CAS_NAME>
4-tert-butyl-N-[4-(5-methoxy-2-oxo-1,3,4-oxadiazol-3-yl)phenyl]benzamide

> <PUBCHEM_IUPAC_NAME_MARKUP>
4-<I>tert</I>-butyl-<I>N</I>-[4-(5-methoxy-2-oxo-1,3,4-oxadiazol-3-yl)phenyl]benzamide

> <PUBCHEM_IUPAC_NAME>
4-tert-butyl-N-[4-(5-methoxy-2-oxo-1,3,4-oxadiazol-3-yl)phenyl]benzamide

> <PUBCHEM_IUPAC_SYSTEMATIC_NAME>
4-tert-butyl-N-[4-(5-methoxy-2-oxidanylidene-1,3,4-oxadiazol-3-yl)phenyl]benzamide

> <PUBCHEM_IUPAC_TRADITIONAL_NAME>
4-tert-butyl-N-[4-(2-keto-5-methoxy-1,3,4-oxadiazol-3-yl)phenyl]benzamide

> <PUBCHEM_IUPAC_INCHI>
InChI=1S/C20H21N3O4/c1-20(2,3)14-7-5-13(6-8-14)17(24)21-15-9-11-16(12-10-15)23-19(25)27-18(22-23)26-4/h5-12H,1-4H3,(H,21,24)

> <PUBCHEM_IUPAC_INCHIKEY>
QPUXQWSDBKIGCJ-UHFFFAOYSA-N

> <PUBCHEM_XLOGP3_AA>
4.4

> <PUBCHEM_EXACT_MASS>
367.15320616

> <PUBCHEM_MOLECULAR_FORMULA>
C20H21N3O4

> <PUBCHEM_MOLECULAR_WEIGHT>
367.4

> <PUBCHEM_OPENEYE_CAN_SMILES>
CC(C)(C)C1=CC=C(C=C1)C(=O)NC2=CC=C(C=C2)N3C(=O)OC(=N3)OC

> <PUBCHEM_OPENEYE_ISO_SMILES>
CC(C)(C)C1=CC=C(C=C1)C(=O)NC2=CC=C(C=C2)N3C(=O)OC(=N3)OC

> <PUBCHEM_CACTVS_TPSA>
80.2

> <PUBCHEM_MONOISOTOPIC_WEIGHT>
367.15320616

> <PUBCHEM_TOTAL_CHARGE>
0

> <PUBCHEM_HEAVY_ATOM_COUNT>
27

> <PUBCHEM_ATOM_DEF_STEREO_COUNT>
0

> <PUBCHEM_ATOM_UDEF_STEREO_COUNT>
0

> <PUBCHEM_BOND_DEF_STEREO_COUNT>
0

> <PUBCHEM_BOND_UDEF_STEREO_COUNT>
0

> <PUBCHEM_ISOTOPIC_ATOM_COUNT>
0

> <PUBCHEM_COMPONENT_COUNT>
1

> <PUBCHEM_CACTVS_TAUTO_COUNT>
-1

> <PUBCHEM_COORDINATE_TYPE>
1
5
255

> <PUBCHEM_BONDANNOTATIONS>
13  16  8
14  17  8
15  16  8
15  17  8
19  21  8
19  22  8
2  25  8
2  26  8
20  23  8
20  24  8
21  23  8
22  24  8
6  25  8
6  7  8
7  26  8
9  13  8
9  14  8

$$$$
