145958778
  -OEChem-02142210362D

 75 78  0     1  0  0  0  0  0999 V2000
    7.7648   -4.7782    0.0000 Br  0  0  0  0  0  0  0  0  0  0  0  0
   10.9294   -6.1872    0.0000 F   0  0  0  0  0  0  0  0  0  0  0  0
    2.5369   -0.7192    0.0000 O   0  0  0  0  0  0  0  0  0  0  0  0
    5.1350   -1.2192    0.0000 O   0  0  0  0  0  0  0  0  0  0  0  0
    3.4030   -1.2192    0.0000 O   0  0  0  0  0  0  0  0  0  0  0  0
    6.1056   -3.7138    0.0000 N   0  0  0  0  0  0  0  0  0  0  0  0
    7.5837   -3.0556    0.0000 N   0  0  0  0  0  0  0  0  0  0  0  0
    7.0837   -3.9217    0.0000 N   0  0  0  0  0  0  0  0  0  0  0  0
    5.1350    3.7808    0.0000 C   0  0  1  0  0  0  0  0  0  0  0  0
    5.1350    4.7808    0.0000 C   0  0  2  0  0  0  0  0  0  0  0  0
    6.0290    5.3154    0.0000 C   0  0  0  0  0  0  0  0  0  0  0  0
    4.2690    3.2808    0.0000 C   0  0  3  0  0  0  0  0  0  0  0  0
    6.0290    3.2461    0.0000 C   0  0  0  0  0  0  0  0  0  0  0  0
    4.2690    5.2808    0.0000 C   0  0  0  0  0  0  0  0  0  0  0  0
    6.9350    4.8016    0.0000 C   0  0  0  0  0  0  0  0  0  0  0  0
    6.9350    3.7600    0.0000 C   0  0  0  0  0  0  0  0  0  0  0  0
    5.1350    2.7808    0.0000 C   0  0  0  0  0  0  0  0  0  0  0  0
    3.4030    4.7808    0.0000 C   0  0  0  0  0  0  0  0  0  0  0  0
    3.4030    3.7808    0.0000 C   0  0  0  0  0  0  0  0  0  0  0  0
    6.5189    6.1872    0.0000 C   0  0  0  0  0  0  0  0  0  0  0  0
    5.5190    6.1756    0.0000 C   0  0  0  0  0  0  0  0  0  0  0  0
    4.2690    2.2808    0.0000 C   0  0  0  0  0  0  0  0  0  0  0  0
    2.5369    3.2808    0.0000 C   0  0  0  0  0  0  0  0  0  0  0  0
    3.4030    1.7808    0.0000 C   0  0  0  0  0  0  0  0  0  0  0  0
    3.4030    0.7808    0.0000 C   0  0  0  0  0  0  0  0  0  0  0  0
    4.2690    0.2808    0.0000 C   0  0  0  0  0  0  0  0  0  0  0  0
    2.5369    0.2808    0.0000 C   0  0  0  0  0  0  0  0  0  0  0  0
    4.2690   -0.7192    0.0000 C   0  0  0  0  0  0  0  0  0  0  0  0
    5.1350   -2.2192    0.0000 C   0  0  0  0  0  0  0  0  0  0  0  0
    6.0010   -2.7192    0.0000 C   0  0  0  0  0  0  0  0  0  0  0  0
    6.9146   -2.3125    0.0000 C   0  0  0  0  0  0  0  0  0  0  0  0
    8.5782   -2.9511    0.0000 C   0  0  0  0  0  0  0  0  0  0  0  0
    9.1660   -3.7601    0.0000 C   0  0  0  0  0  0  0  0  0  0  0  0
    8.7593   -4.6737    0.0000 C   0  0  0  0  0  0  0  0  0  0  0  0
   10.1605   -3.6556    0.0000 C   0  0  0  0  0  0  0  0  0  0  0  0
    9.3471   -5.4827    0.0000 C   0  0  0  0  0  0  0  0  0  0  0  0
   10.7483   -4.4646    0.0000 C   0  0  0  0  0  0  0  0  0  0  0  0
   10.3416   -5.3782    0.0000 C   0  0  0  0  0  0  0  0  0  0  0  0
    5.1285    5.6307    0.0000 H   0  0  0  0  0  0  0  0  0  0  0  0
    3.7320    2.9708    0.0000 H   0  0  0  0  0  0  0  0  0  0  0  0
    5.6244    2.7763    0.0000 H   0  0  0  0  0  0  0  0  0  0  0  0
    6.4226    2.7671    0.0000 H   0  0  0  0  0  0  0  0  0  0  0  0
    4.6675    5.7557    0.0000 H   0  0  0  0  0  0  0  0  0  0  0  0
    3.8705    5.7557    0.0000 H   0  0  0  0  0  0  0  0  0  0  0  0
    7.5459    4.6955    0.0000 H   0  0  0  0  0  0  0  0  0  0  0  0
    7.1441    5.3853    0.0000 H   0  0  0  0  0  0  0  0  0  0  0  0
    7.1441    3.1763    0.0000 H   0  0  0  0  0  0  0  0  0  0  0  0
    7.5459    3.8660    0.0000 H   0  0  0  0  0  0  0  0  0  0  0  0
    4.5150    2.7808    0.0000 H   0  0  0  0  0  0  0  0  0  0  0  0
    5.1350    2.1608    0.0000 H   0  0  0  0  0  0  0  0  0  0  0  0
    5.7550    2.7808    0.0000 H   0  0  0  0  0  0  0  0  0  0  0  0
    3.1909    5.3634    0.0000 H   0  0  0  0  0  0  0  0  0  0  0  0
    2.7924    4.6731    0.0000 H   0  0  0  0  0  0  0  0  0  0  0  0
    7.0594    5.8834    0.0000 H   0  0  0  0  0  0  0  0  0  0  0  0
    6.8227    6.7277    0.0000 H   0  0  0  0  0  0  0  0  0  0  0  0
    5.9784    6.4910    0.0000 H   0  0  0  0  0  0  0  0  0  0  0  0
    6.0523    6.4918    0.0000 H   0  0  0  0  0  0  0  0  0  0  0  0
    5.2028    6.7089    0.0000 H   0  0  0  0  0  0  0  0  0  0  0  0
    4.9857    5.8594    0.0000 H   0  0  0  0  0  0  0  0  0  0  0  0
    4.4810    1.6982    0.0000 H   0  0  0  0  0  0  0  0  0  0  0  0
    4.8796    2.3884    0.0000 H   0  0  0  0  0  0  0  0  0  0  0  0
    2.0000    3.5908    0.0000 H   0  0  0  0  0  0  0  0  0  0  0  0
    2.5369    2.6608    0.0000 H   0  0  0  0  0  0  0  0  0  0  0  0
    2.8660    2.0908    0.0000 H   0  0  0  0  0  0  0  0  0  0  0  0
    4.8796    0.1731    0.0000 H   0  0  0  0  0  0  0  0  0  0  0  0
    4.4810    0.8634    0.0000 H   0  0  0  0  0  0  0  0  0  0  0  0
    2.0000    0.5908    0.0000 H   0  0  0  0  0  0  0  0  0  0  0  0
    4.5244   -2.1116    0.0000 H   0  0  0  0  0  0  0  0  0  0  0  0
    4.9230   -2.8018    0.0000 H   0  0  0  0  0  0  0  0  0  0  0  0
    7.0435   -1.7060    0.0000 H   0  0  0  0  0  0  0  0  0  0  0  0
    9.1355   -2.6793    0.0000 H   0  0  0  0  0  0  0  0  0  0  0  0
    8.4073   -2.3551    0.0000 H   0  0  0  0  0  0  0  0  0  0  0  0
   10.4127   -3.0892    0.0000 H   0  0  0  0  0  0  0  0  0  0  0  0
    9.0949   -6.0491    0.0000 H   0  0  0  0  0  0  0  0  0  0  0  0
   11.3649   -4.3998    0.0000 H   0  0  0  0  0  0  0  0  0  0  0  0
  1 34  1  0  0  0  0
  2 38  1  0  0  0  0
  3 27  2  0  0  0  0
  4 28  1  0  0  0  0
  4 29  1  0  0  0  0
  5 28  2  0  0  0  0
  6  8  2  0  0  0  0
  6 30  1  0  0  0  0
  7  8  1  0  0  0  0
  7 31  1  0  0  0  0
  7 32  1  0  0  0  0
  9 10  1  0  0  0  0
  9 12  1  0  0  0  0
  9 13  1  0  0  0  0
  9 17  1  1  0  0  0
 10 11  1  0  0  0  0
 10 14  1  0  0  0  0
 10 39  1  6  0  0  0
 11 15  1  0  0  0  0
 11 20  1  0  0  0  0
 11 21  1  0  0  0  0
 12 19  1  0  0  0  0
 12 22  1  0  0  0  0
 12 40  1  0  0  0  0
 13 16  1  0  0  0  0
 13 41  1  0  0  0  0
 13 42  1  0  0  0  0
 14 18  1  0  0  0  0
 14 43  1  0  0  0  0
 14 44  1  0  0  0  0
 15 16  1  0  0  0  0
 15 45  1  0  0  0  0
 15 46  1  0  0  0  0
 16 47  1  0  0  0  0
 16 48  1  0  0  0  0
 17 49  1  0  0  0  0
 17 50  1  0  0  0  0
 17 51  1  0  0  0  0
 18 19  1  0  0  0  0
 18 52  1  0  0  0  0
 18 53  1  0  0  0  0
 19 23  2  0  0  0  0
 20 54  1  0  0  0  0
 20 55  1  0  0  0  0
 20 56  1  0  0  0  0
 21 57  1  0  0  0  0
 21 58  1  0  0  0  0
 21 59  1  0  0  0  0
 22 24  1  0  0  0  0
 22 60  1  0  0  0  0
 22 61  1  0  0  0  0
 23 62  1  0  0  0  0
 23 63  1  0  0  0  0
 24 25  2  0  0  0  0
 24 64  1  0  0  0  0
 25 26  1  0  0  0  0
 25 27  1  0  0  0  0
 26 28  1  0  0  0  0
 26 65  1  0  0  0  0
 26 66  1  0  0  0  0
 27 67  1  0  0  0  0
 29 30  1  0  0  0  0
 29 68  1  0  0  0  0
 29 69  1  0  0  0  0
 30 31  2  0  0  0  0
 31 70  1  0  0  0  0
 32 33  1  0  0  0  0
 32 71  1  0  0  0  0
 32 72  1  0  0  0  0
 33 34  2  0  0  0  0
 33 35  1  0  0  0  0
 34 36  1  0  0  0  0
 35 37  2  0  0  0  0
 35 73  1  0  0  0  0
 36 38  2  0  0  0  0
 36 74  1  0  0  0  0
 37 38  1  0  0  0  0
 37 75  1  0  0  0  0
M  END
> <PUBCHEM_COMPOUND_CID>
145958778

> <PUBCHEM_COMPOUND_CANONICALIZED>
1

> <PUBCHEM_CACTVS_COMPLEXITY>
911

> <PUBCHEM_CACTVS_HBOND_ACCEPTOR>
6

> <PUBCHEM_CACTVS_HBOND_DONOR>
0

> <PUBCHEM_CACTVS_ROTATABLE_BOND>
10

> <PUBCHEM_CACTVS_SUBSKEYS>
AAADcfB7MQAAEAAAAAAAAAAAAAAAAWAAAAAwYMAAAAAAAADBwAAAHwBIAAABrwjhng4+iJIIBACqAzz3zASCBAQxkgQY2AE4fOgKZDLAsRmXIAhmwADIq5cTgMAPgAAAAAAAgAAAAAQAACEAAAAAAAAAAA==

> <PUBCHEM_IUPAC_OPENEYE_NAME>
[1-[(2-bromo-4-fluoro-phenyl)methyl]triazol-4-yl]methyl (E)-5-[(4aS,8aS)-5,5,8a-trimethyl-2-methylene-decalin-1-yl]-3-formyl-pent-3-enoate

> <PUBCHEM_IUPAC_CAS_NAME>
(E)-5-[(4aS,8aS)-5,5,8a-trimethyl-2-methylene-3,4,4a,6,7,8-hexahydro-1H-naphthalen-1-yl]-3-formyl-3-pentenoic acid [1-[(2-bromo-4-fluorophenyl)methyl]-4-triazolyl]methyl ester

> <PUBCHEM_IUPAC_NAME_MARKUP>
[1-[(2-bromo-4-fluorophenyl)methyl]triazol-4-yl]methyl (<I>E</I>)-5-[(4<I>a</I><I>S</I>,8<I>a</I><I>S</I>)-5,5,8<I>a</I>-trimethyl-2-methylidene-3,4,4<I>a</I>,6,7,8-hexahydro-1<I>H</I>-naphthalen-1-yl]-3-formylpent-3-enoate

> <PUBCHEM_IUPAC_NAME>
[1-[(2-bromo-4-fluorophenyl)methyl]triazol-4-yl]methyl (E)-5-[(4aS,8aS)-5,5,8a-trimethyl-2-methylidene-3,4,4a,6,7,8-hexahydro-1H-naphthalen-1-yl]-3-formylpent-3-enoate

> <PUBCHEM_IUPAC_SYSTEMATIC_NAME>
[1-[(2-bromanyl-4-fluoranyl-phenyl)methyl]-1,2,3-triazol-4-yl]methyl (E)-5-[(4aS,8aS)-5,5,8a-trimethyl-2-methylidene-3,4,4a,6,7,8-hexahydro-1H-naphthalen-1-yl]-3-methanoyl-pent-3-enoate

> <PUBCHEM_IUPAC_TRADITIONAL_NAME>
(E)-5-[(4aS,8aS)-5,5,8a-trimethyl-2-methylene-decalin-1-yl]-3-formyl-pent-3-enoic acid [1-(2-bromo-4-fluoro-benzyl)triazol-4-yl]methyl ester

> <PUBCHEM_IUPAC_INCHI>
InChI=1S/C30H37BrFN3O3/c1-20-6-11-27-29(2,3)12-5-13-30(27,4)25(20)10-7-21(18-36)14-28(37)38-19-24-17-35(34-33-24)16-22-8-9-23(32)15-26(22)31/h7-9,15,17-18,25,27H,1,5-6,10-14,16,19H2,2-4H3/b21-7+/t25?,27-,30+/m0/s1

> <PUBCHEM_IUPAC_INCHIKEY>
VTQWTRKCOPIEEG-ZKTFIQPISA-N

> <PUBCHEM_XLOGP3_AA>
6.5

> <PUBCHEM_EXACT_MASS>
585.20023

> <PUBCHEM_MOLECULAR_FORMULA>
C30H37BrFN3O3

> <PUBCHEM_MOLECULAR_WEIGHT>
586.5

> <PUBCHEM_OPENEYE_CAN_SMILES>
CC1(CCCC2(C1CCC(=C)C2CC=C(CC(=O)OCC3=CN(N=N3)CC4=C(C=C(C=C4)F)Br)C=O)C)C

> <PUBCHEM_OPENEYE_ISO_SMILES>
C[C@]12CCCC([C@@H]1CCC(=C)C2C/C=C(\CC(=O)OCC3=CN(N=N3)CC4=C(C=C(C=C4)F)Br)/C=O)(C)C

> <PUBCHEM_CACTVS_TPSA>
74.1

> <PUBCHEM_MONOISOTOPIC_WEIGHT>
585.20023

> <PUBCHEM_TOTAL_CHARGE>
0

> <PUBCHEM_HEAVY_ATOM_COUNT>
38

> <PUBCHEM_ATOM_DEF_STEREO_COUNT>
2

> <PUBCHEM_ATOM_UDEF_STEREO_COUNT>
1

> <PUBCHEM_BOND_DEF_STEREO_COUNT>
1

> <PUBCHEM_BOND_UDEF_STEREO_COUNT>
0

> <PUBCHEM_ISOTOPIC_ATOM_COUNT>
0

> <PUBCHEM_COMPONENT_COUNT>
1

> <PUBCHEM_CACTVS_TAUTO_COUNT>
-1

> <PUBCHEM_COORDINATE_TYPE>
1
5
255

> <PUBCHEM_BONDANNOTATIONS>
10  39  6
12  22  3
30  31  8
33  34  8
33  35  8
34  36  8
35  37  8
36  38  8
37  38  8
6  30  8
6  8  8
7  31  8
7  8  8
9  17  5

$$$$
