145950231
  -OEChem-02172201042D

 79 82  0     1  0  0  0  0  0999 V2000
    7.7648   -5.1304    0.0000 Br  0  0  0  0  0  0  0  0  0  0  0  0
    2.5369   -1.0715    0.0000 O   0  0  0  0  0  0  0  0  0  0  0  0
    5.1350   -1.5715    0.0000 O   0  0  0  0  0  0  0  0  0  0  0  0
    3.4030   -1.5715    0.0000 O   0  0  0  0  0  0  0  0  0  0  0  0
   11.7428   -4.7123    0.0000 O   0  0  0  0  0  0  0  0  0  0  0  0
    6.1056   -4.0660    0.0000 N   0  0  0  0  0  0  0  0  0  0  0  0
    7.5837   -3.4079    0.0000 N   0  0  0  0  0  0  0  0  0  0  0  0
    7.0837   -4.2739    0.0000 N   0  0  0  0  0  0  0  0  0  0  0  0
    5.1350    3.4285    0.0000 C   0  0  1  0  0  0  0  0  0  0  0  0
    5.1350    4.4285    0.0000 C   0  0  2  0  0  0  0  0  0  0  0  0
    6.0290    4.9632    0.0000 C   0  0  0  0  0  0  0  0  0  0  0  0
    4.2690    2.9285    0.0000 C   0  0  3  0  0  0  0  0  0  0  0  0
    6.0290    2.8939    0.0000 C   0  0  0  0  0  0  0  0  0  0  0  0
    4.2690    4.9285    0.0000 C   0  0  0  0  0  0  0  0  0  0  0  0
    6.9350    4.4493    0.0000 C   0  0  0  0  0  0  0  0  0  0  0  0
    6.9350    3.4077    0.0000 C   0  0  0  0  0  0  0  0  0  0  0  0
    5.1350    2.4285    0.0000 C   0  0  0  0  0  0  0  0  0  0  0  0
    3.4030    4.4285    0.0000 C   0  0  0  0  0  0  0  0  0  0  0  0
    3.4030    3.4285    0.0000 C   0  0  0  0  0  0  0  0  0  0  0  0
    6.5189    5.8349    0.0000 C   0  0  0  0  0  0  0  0  0  0  0  0
    5.5190    5.8234    0.0000 C   0  0  0  0  0  0  0  0  0  0  0  0
    4.2690    1.9285    0.0000 C   0  0  0  0  0  0  0  0  0  0  0  0
    2.5369    2.9285    0.0000 C   0  0  0  0  0  0  0  0  0  0  0  0
    3.4030    1.4285    0.0000 C   0  0  0  0  0  0  0  0  0  0  0  0
    3.4030    0.4285    0.0000 C   0  0  0  0  0  0  0  0  0  0  0  0
    4.2690   -0.0715    0.0000 C   0  0  0  0  0  0  0  0  0  0  0  0
    2.5369   -0.0715    0.0000 C   0  0  0  0  0  0  0  0  0  0  0  0
    4.2690   -1.0715    0.0000 C   0  0  0  0  0  0  0  0  0  0  0  0
    5.1350   -2.5715    0.0000 C   0  0  0  0  0  0  0  0  0  0  0  0
    6.0010   -3.0715    0.0000 C   0  0  0  0  0  0  0  0  0  0  0  0
    6.9146   -2.6647    0.0000 C   0  0  0  0  0  0  0  0  0  0  0  0
    8.5782   -3.3034    0.0000 C   0  0  0  0  0  0  0  0  0  0  0  0
    9.1660   -4.1124    0.0000 C   0  0  0  0  0  0  0  0  0  0  0  0
   10.1605   -4.0078    0.0000 C   0  0  0  0  0  0  0  0  0  0  0  0
    8.7593   -5.0259    0.0000 C   0  0  0  0  0  0  0  0  0  0  0  0
   10.7483   -4.8169    0.0000 C   0  0  0  0  0  0  0  0  0  0  0  0
    9.3471   -5.8349    0.0000 C   0  0  0  0  0  0  0  0  0  0  0  0
   10.3416   -5.7304    0.0000 C   0  0  0  0  0  0  0  0  0  0  0  0
   12.3306   -5.5214    0.0000 C   0  0  0  0  0  0  0  0  0  0  0  0
    5.1285    5.2785    0.0000 H   0  0  0  0  0  0  0  0  0  0  0  0
    3.7320    2.6185    0.0000 H   0  0  0  0  0  0  0  0  0  0  0  0
    5.6244    2.4241    0.0000 H   0  0  0  0  0  0  0  0  0  0  0  0
    6.4226    2.4148    0.0000 H   0  0  0  0  0  0  0  0  0  0  0  0
    4.6675    5.4035    0.0000 H   0  0  0  0  0  0  0  0  0  0  0  0
    3.8705    5.4035    0.0000 H   0  0  0  0  0  0  0  0  0  0  0  0
    7.5459    4.3432    0.0000 H   0  0  0  0  0  0  0  0  0  0  0  0
    7.1441    5.0330    0.0000 H   0  0  0  0  0  0  0  0  0  0  0  0
    7.1441    2.8240    0.0000 H   0  0  0  0  0  0  0  0  0  0  0  0
    7.5459    3.5138    0.0000 H   0  0  0  0  0  0  0  0  0  0  0  0
    4.5150    2.4285    0.0000 H   0  0  0  0  0  0  0  0  0  0  0  0
    5.1350    1.8085    0.0000 H   0  0  0  0  0  0  0  0  0  0  0  0
    5.7550    2.4285    0.0000 H   0  0  0  0  0  0  0  0  0  0  0  0
    3.1909    5.0111    0.0000 H   0  0  0  0  0  0  0  0  0  0  0  0
    2.7924    4.3209    0.0000 H   0  0  0  0  0  0  0  0  0  0  0  0
    7.0594    5.5312    0.0000 H   0  0  0  0  0  0  0  0  0  0  0  0
    6.8227    6.3754    0.0000 H   0  0  0  0  0  0  0  0  0  0  0  0
    5.9784    6.1387    0.0000 H   0  0  0  0  0  0  0  0  0  0  0  0
    6.0523    6.1396    0.0000 H   0  0  0  0  0  0  0  0  0  0  0  0
    5.2028    6.3567    0.0000 H   0  0  0  0  0  0  0  0  0  0  0  0
    4.9857    5.5072    0.0000 H   0  0  0  0  0  0  0  0  0  0  0  0
    4.4810    1.3459    0.0000 H   0  0  0  0  0  0  0  0  0  0  0  0
    4.8796    2.0362    0.0000 H   0  0  0  0  0  0  0  0  0  0  0  0
    2.0000    3.2385    0.0000 H   0  0  0  0  0  0  0  0  0  0  0  0
    2.5369    2.3085    0.0000 H   0  0  0  0  0  0  0  0  0  0  0  0
    2.8660    1.7385    0.0000 H   0  0  0  0  0  0  0  0  0  0  0  0
    4.8796   -0.1791    0.0000 H   0  0  0  0  0  0  0  0  0  0  0  0
    4.4810    0.5111    0.0000 H   0  0  0  0  0  0  0  0  0  0  0  0
    2.0000    0.2385    0.0000 H   0  0  0  0  0  0  0  0  0  0  0  0
    4.5244   -2.4638    0.0000 H   0  0  0  0  0  0  0  0  0  0  0  0
    4.9230   -3.1541    0.0000 H   0  0  0  0  0  0  0  0  0  0  0  0
    7.0435   -2.0583    0.0000 H   0  0  0  0  0  0  0  0  0  0  0  0
    9.1355   -3.0316    0.0000 H   0  0  0  0  0  0  0  0  0  0  0  0
    8.4073   -2.7074    0.0000 H   0  0  0  0  0  0  0  0  0  0  0  0
   10.4127   -3.4414    0.0000 H   0  0  0  0  0  0  0  0  0  0  0  0
    9.0949   -6.4013    0.0000 H   0  0  0  0  0  0  0  0  0  0  0  0
   10.7060   -6.2320    0.0000 H   0  0  0  0  0  0  0  0  0  0  0  0
   11.8290   -5.8858    0.0000 H   0  0  0  0  0  0  0  0  0  0  0  0
   12.6951   -6.0229    0.0000 H   0  0  0  0  0  0  0  0  0  0  0  0
   12.8322   -5.1569    0.0000 H   0  0  0  0  0  0  0  0  0  0  0  0
  1 35  1  0  0  0  0
  2 27  2  0  0  0  0
  3 28  1  0  0  0  0
  3 29  1  0  0  0  0
  4 28  2  0  0  0  0
  5 36  1  0  0  0  0
  5 39  1  0  0  0  0
  6  8  2  0  0  0  0
  6 30  1  0  0  0  0
  7  8  1  0  0  0  0
  7 31  1  0  0  0  0
  7 32  1  0  0  0  0
  9 10  1  0  0  0  0
  9 12  1  0  0  0  0
  9 13  1  0  0  0  0
  9 17  1  1  0  0  0
 10 11  1  0  0  0  0
 10 14  1  0  0  0  0
 10 40  1  6  0  0  0
 11 15  1  0  0  0  0
 11 20  1  0  0  0  0
 11 21  1  0  0  0  0
 12 19  1  0  0  0  0
 12 22  1  0  0  0  0
 12 41  1  0  0  0  0
 13 16  1  0  0  0  0
 13 42  1  0  0  0  0
 13 43  1  0  0  0  0
 14 18  1  0  0  0  0
 14 44  1  0  0  0  0
 14 45  1  0  0  0  0
 15 16  1  0  0  0  0
 15 46  1  0  0  0  0
 15 47  1  0  0  0  0
 16 48  1  0  0  0  0
 16 49  1  0  0  0  0
 17 50  1  0  0  0  0
 17 51  1  0  0  0  0
 17 52  1  0  0  0  0
 18 19  1  0  0  0  0
 18 53  1  0  0  0  0
 18 54  1  0  0  0  0
 19 23  2  0  0  0  0
 20 55  1  0  0  0  0
 20 56  1  0  0  0  0
 20 57  1  0  0  0  0
 21 58  1  0  0  0  0
 21 59  1  0  0  0  0
 21 60  1  0  0  0  0
 22 24  1  0  0  0  0
 22 61  1  0  0  0  0
 22 62  1  0  0  0  0
 23 63  1  0  0  0  0
 23 64  1  0  0  0  0
 24 25  2  0  0  0  0
 24 65  1  0  0  0  0
 25 26  1  0  0  0  0
 25 27  1  0  0  0  0
 26 28  1  0  0  0  0
 26 66  1  0  0  0  0
 26 67  1  0  0  0  0
 27 68  1  0  0  0  0
 29 30  1  0  0  0  0
 29 69  1  0  0  0  0
 29 70  1  0  0  0  0
 30 31  2  0  0  0  0
 31 71  1  0  0  0  0
 32 33  1  0  0  0  0
 32 72  1  0  0  0  0
 32 73  1  0  0  0  0
 33 34  1  0  0  0  0
 33 35  2  0  0  0  0
 34 36  2  0  0  0  0
 34 74  1  0  0  0  0
 35 37  1  0  0  0  0
 36 38  1  0  0  0  0
 37 38  2  0  0  0  0
 37 75  1  0  0  0  0
 38 76  1  0  0  0  0
 39 77  1  0  0  0  0
 39 78  1  0  0  0  0
 39 79  1  0  0  0  0
M  END
> <PUBCHEM_COMPOUND_CID>
145950231

> <PUBCHEM_COMPOUND_CANONICALIZED>
1

> <PUBCHEM_CACTVS_COMPLEXITY>
924

> <PUBCHEM_CACTVS_HBOND_ACCEPTOR>
6

> <PUBCHEM_CACTVS_HBOND_DONOR>
0

> <PUBCHEM_CACTVS_ROTATABLE_BOND>
11

> <PUBCHEM_CACTVS_SUBSKEYS>
AAADcfB7OAAAEAAAAAAAAAAAAAAAAWAAAAAwYMAAAAAAAADBwAAAHgBIAAABrwzhngY+jpIIBACqAzz3zASCDAQxsgQY2AE+fOgOZjLEsRuXMChmwBHIq5ezwNAPgBABAAAAgAAAIAYAACEAAAAAAAAAAA==

> <PUBCHEM_IUPAC_OPENEYE_NAME>
[1-[(2-bromo-5-methoxy-phenyl)methyl]triazol-4-yl]methyl (E)-5-[(4aS,8aS)-5,5,8a-trimethyl-2-methylene-decalin-1-yl]-3-formyl-pent-3-enoate

> <PUBCHEM_IUPAC_CAS_NAME>
(E)-5-[(4aS,8aS)-5,5,8a-trimethyl-2-methylene-3,4,4a,6,7,8-hexahydro-1H-naphthalen-1-yl]-3-formyl-3-pentenoic acid [1-[(2-bromo-5-methoxyphenyl)methyl]-4-triazolyl]methyl ester

> <PUBCHEM_IUPAC_NAME_MARKUP>
[1-[(2-bromo-5-methoxyphenyl)methyl]triazol-4-yl]methyl (<I>E</I>)-5-[(4<I>a</I><I>S</I>,8<I>a</I><I>S</I>)-5,5,8<I>a</I>-trimethyl-2-methylidene-3,4,4<I>a</I>,6,7,8-hexahydro-1<I>H</I>-naphthalen-1-yl]-3-formylpent-3-enoate

> <PUBCHEM_IUPAC_NAME>
[1-[(2-bromo-5-methoxyphenyl)methyl]triazol-4-yl]methyl (E)-5-[(4aS,8aS)-5,5,8a-trimethyl-2-methylidene-3,4,4a,6,7,8-hexahydro-1H-naphthalen-1-yl]-3-formylpent-3-enoate

> <PUBCHEM_IUPAC_SYSTEMATIC_NAME>
[1-[(2-bromanyl-5-methoxy-phenyl)methyl]-1,2,3-triazol-4-yl]methyl (E)-5-[(4aS,8aS)-5,5,8a-trimethyl-2-methylidene-3,4,4a,6,7,8-hexahydro-1H-naphthalen-1-yl]-3-methanoyl-pent-3-enoate

> <PUBCHEM_IUPAC_TRADITIONAL_NAME>
(E)-5-[(4aS,8aS)-5,5,8a-trimethyl-2-methylene-decalin-1-yl]-3-formyl-pent-3-enoic acid [1-(2-bromo-5-methoxy-benzyl)triazol-4-yl]methyl ester

> <PUBCHEM_IUPAC_INCHI>
InChI=1S/C31H40BrN3O4/c1-21-7-12-28-30(2,3)13-6-14-31(28,4)26(21)10-8-22(19-36)15-29(37)39-20-24-18-35(34-33-24)17-23-16-25(38-5)9-11-27(23)32/h8-9,11,16,18-19,26,28H,1,6-7,10,12-15,17,20H2,2-5H3/b22-8+/t26?,28-,31+/m0/s1

> <PUBCHEM_IUPAC_INCHIKEY>
WNNFJIWORWUWAG-KKRZVRPESA-N

> <PUBCHEM_XLOGP3_AA>
6.4

> <PUBCHEM_EXACT_MASS>
597.22022

> <PUBCHEM_MOLECULAR_FORMULA>
C31H40BrN3O4

> <PUBCHEM_MOLECULAR_WEIGHT>
598.6

> <PUBCHEM_OPENEYE_CAN_SMILES>
CC1(CCCC2(C1CCC(=C)C2CC=C(CC(=O)OCC3=CN(N=N3)CC4=C(C=CC(=C4)OC)Br)C=O)C)C

> <PUBCHEM_OPENEYE_ISO_SMILES>
C[C@]12CCCC([C@@H]1CCC(=C)C2C/C=C(\CC(=O)OCC3=CN(N=N3)CC4=C(C=CC(=C4)OC)Br)/C=O)(C)C

> <PUBCHEM_CACTVS_TPSA>
83.3

> <PUBCHEM_MONOISOTOPIC_WEIGHT>
597.22022

> <PUBCHEM_TOTAL_CHARGE>
0

> <PUBCHEM_HEAVY_ATOM_COUNT>
39

> <PUBCHEM_ATOM_DEF_STEREO_COUNT>
2

> <PUBCHEM_ATOM_UDEF_STEREO_COUNT>
1

> <PUBCHEM_BOND_DEF_STEREO_COUNT>
1

> <PUBCHEM_BOND_UDEF_STEREO_COUNT>
0

> <PUBCHEM_ISOTOPIC_ATOM_COUNT>
0

> <PUBCHEM_COMPONENT_COUNT>
1

> <PUBCHEM_CACTVS_TAUTO_COUNT>
-1

> <PUBCHEM_COORDINATE_TYPE>
1
5
255

> <PUBCHEM_BONDANNOTATIONS>
10  40  6
12  22  3
30  31  8
33  34  8
33  35  8
34  36  8
35  37  8
36  38  8
37  38  8
6  30  8
6  8  8
7  31  8
7  8  8
9  17  5

$$$$
