46898597
  -OEChem-02152210472D

 32 33  0     1  0  0  0  0  0999 V2000
    2.7056   -2.4761    0.0000 O   0  0  0  0  0  0  0  0  0  0  0  0
    2.0000   -0.7593    0.0000 O   0  0  0  0  0  0  0  0  0  0  0  0
    6.7528   -2.8380    0.0000 O   0  0  0  0  0  0  0  0  0  0  0  0
    5.4460    2.5280    0.0000 O   0  0  0  0  0  0  0  0  0  0  0  0
    3.7139   -1.4720    0.0000 C   0  0  2  0  0  0  0  0  0  0  0  0
    3.7139   -2.4720    0.0000 C   0  0  2  0  0  0  0  0  0  0  0  0
    4.6650   -2.7810    0.0000 C   0  0  0  0  0  0  0  0  0  0  0  0
    4.6650   -1.1630    0.0000 C   0  0  0  0  0  0  0  0  0  0  0  0
    3.7139   -0.4720    0.0000 C   0  0  0  0  0  0  0  0  0  0  0  0
    2.7056   -1.4678    0.0000 C   0  0  0  0  0  0  0  0  0  0  0  0
    5.2528   -1.9720    0.0000 C   0  0  0  0  0  0  0  0  0  0  0  0
    6.2528   -1.9720    0.0000 C   0  0  0  0  0  0  0  0  0  0  0  0
    4.5800    0.0280    0.0000 C   0  0  0  0  0  0  0  0  0  0  0  0
    4.5800    1.0280    0.0000 C   0  0  0  0  0  0  0  0  0  0  0  0
    5.4460    1.5280    0.0000 C   0  0  0  0  0  0  0  0  0  0  0  0
    3.7139    1.5280    0.0000 C   0  0  0  0  0  0  0  0  0  0  0  0
    3.5827   -3.3118    0.0000 H   0  0  0  0  0  0  0  0  0  0  0  0
    4.4128   -3.3474    0.0000 H   0  0  0  0  0  0  0  0  0  0  0  0
    5.2019   -3.0910    0.0000 H   0  0  0  0  0  0  0  0  0  0  0  0
    4.8566   -0.5733    0.0000 H   0  0  0  0  0  0  0  0  0  0  0  0
    3.5019    0.1106    0.0000 H   0  0  0  0  0  0  0  0  0  0  0  0
    3.1034   -0.5796    0.0000 H   0  0  0  0  0  0  0  0  0  0  0  0
    6.8354   -1.7599    0.0000 H   0  0  0  0  0  0  0  0  0  0  0  0
    6.1451   -1.3614    0.0000 H   0  0  0  0  0  0  0  0  0  0  0  0
    5.1169   -0.2820    0.0000 H   0  0  0  0  0  0  0  0  0  0  0  0
    7.3728   -2.8380    0.0000 H   0  0  0  0  0  0  0  0  0  0  0  0
    5.6580    0.9454    0.0000 H   0  0  0  0  0  0  0  0  0  0  0  0
    6.0566    1.6357    0.0000 H   0  0  0  0  0  0  0  0  0  0  0  0
    4.0239    2.0650    0.0000 H   0  0  0  0  0  0  0  0  0  0  0  0
    3.1770    1.8380    0.0000 H   0  0  0  0  0  0  0  0  0  0  0  0
    3.4039    0.9911    0.0000 H   0  0  0  0  0  0  0  0  0  0  0  0
    5.9829    2.8380    0.0000 H   0  0  0  0  0  0  0  0  0  0  0  0
  1  6  1  0  0  0  0
  1 10  1  0  0  0  0
  2 10  2  0  0  0  0
  3 12  1  0  0  0  0
  3 26  1  0  0  0  0
  4 15  1  0  0  0  0
  4 32  1  0  0  0  0
  5  6  1  0  0  0  0
  5  8  1  0  0  0  0
  5  9  1  1  0  0  0
  5 10  1  0  0  0  0
  6  7  1  0  0  0  0
  6 17  1  1  0  0  0
  7 11  1  0  0  0  0
  7 18  1  0  0  0  0
  7 19  1  0  0  0  0
  8 11  2  0  0  0  0
  8 20  1  0  0  0  0
  9 13  1  0  0  0  0
  9 21  1  0  0  0  0
  9 22  1  0  0  0  0
 11 12  1  0  0  0  0
 12 23  1  0  0  0  0
 12 24  1  0  0  0  0
 13 14  2  0  0  0  0
 13 25  1  0  0  0  0
 14 15  1  0  0  0  0
 14 16  1  0  0  0  0
 15 27  1  0  0  0  0
 15 28  1  0  0  0  0
 16 29  1  0  0  0  0
 16 30  1  0  0  0  0
 16 31  1  0  0  0  0
M  END
> <PUBCHEM_COMPOUND_CID>
46898597

> <PUBCHEM_COMPOUND_CANONICALIZED>
1

> <PUBCHEM_CACTVS_COMPLEXITY>
369

> <PUBCHEM_CACTVS_HBOND_ACCEPTOR>
4

> <PUBCHEM_CACTVS_HBOND_DONOR>
2

> <PUBCHEM_CACTVS_ROTATABLE_BOND>
4

> <PUBCHEM_CACTVS_SUBSKEYS>
AAADceBwOAAAAAAAAAAAAAAAAABIAQAAAAAAAAAABAAAAAAAAAAAGgAACAAADhSggAICCAAABgCIAiDSCAAAAAAgAAAACAEAAAgAFBYAAQACUAAE4AAIEAPIyDAPAAAAAAAAAAAAAAAAAAAAAAAAAAAAAA==

> <PUBCHEM_IUPAC_OPENEYE_NAME>
(1R,5S)-3-(hydroxymethyl)-1-[(E)-4-hydroxy-3-methyl-but-2-enyl]-6-oxabicyclo[3.2.0]hept-2-en-7-one

> <PUBCHEM_IUPAC_CAS_NAME>
(1R,5S)-3-(hydroxymethyl)-1-[(E)-4-hydroxy-3-methylbut-2-enyl]-6-oxabicyclo[3.2.0]hept-2-en-7-one

> <PUBCHEM_IUPAC_NAME_MARKUP>
(1<I>R</I>,5<I>S</I>)-3-(hydroxymethyl)-1-[(<I>E</I>)-4-hydroxy-3-methylbut-2-enyl]-6-oxabicyclo[3.2.0]hept-2-en-7-one

> <PUBCHEM_IUPAC_NAME>
(1R,5S)-3-(hydroxymethyl)-1-[(E)-4-hydroxy-3-methylbut-2-enyl]-6-oxabicyclo[3.2.0]hept-2-en-7-one

> <PUBCHEM_IUPAC_SYSTEMATIC_NAME>
(1R,5S)-3-(hydroxymethyl)-1-[(E)-3-methyl-4-oxidanyl-but-2-enyl]-6-oxabicyclo[3.2.0]hept-2-en-7-one

> <PUBCHEM_IUPAC_TRADITIONAL_NAME>
(1R,5S)-1-[(E)-4-hydroxy-3-methyl-but-2-enyl]-3-methylol-6-oxabicyclo[3.2.0]hept-2-en-7-one

> <PUBCHEM_IUPAC_INCHI>
InChI=1S/C12H16O4/c1-8(6-13)2-3-12-5-9(7-14)4-10(12)16-11(12)15/h2,5,10,13-14H,3-4,6-7H2,1H3/b8-2+/t10-,12+/m0/s1

> <PUBCHEM_IUPAC_INCHIKEY>
VGNVWIDTLMLHBU-MJRMITDOSA-N

> <PUBCHEM_XLOGP3_AA>
0

> <PUBCHEM_EXACT_MASS>
224.10485899

> <PUBCHEM_MOLECULAR_FORMULA>
C12H16O4

> <PUBCHEM_MOLECULAR_WEIGHT>
224.25

> <PUBCHEM_OPENEYE_CAN_SMILES>
CC(=CCC12C=C(CC1OC2=O)CO)CO

> <PUBCHEM_OPENEYE_ISO_SMILES>
C/C(=C\C[C@@]12C=C(C[C@@H]1OC2=O)CO)/CO

> <PUBCHEM_CACTVS_TPSA>
66.8

> <PUBCHEM_MONOISOTOPIC_WEIGHT>
224.10485899

> <PUBCHEM_TOTAL_CHARGE>
0

> <PUBCHEM_HEAVY_ATOM_COUNT>
16

> <PUBCHEM_ATOM_DEF_STEREO_COUNT>
2

> <PUBCHEM_ATOM_UDEF_STEREO_COUNT>
0

> <PUBCHEM_BOND_DEF_STEREO_COUNT>
1

> <PUBCHEM_BOND_UDEF_STEREO_COUNT>
0

> <PUBCHEM_ISOTOPIC_ATOM_COUNT>
0

> <PUBCHEM_COMPONENT_COUNT>
1

> <PUBCHEM_CACTVS_TAUTO_COUNT>
-1

> <PUBCHEM_COORDINATE_TYPE>
1
5
255

> <PUBCHEM_BONDANNOTATIONS>
5  9  5
6  17  5

$$$$
