145949153
  -OEChem-02162200292D

 85 89  0     1  0  0  0  0  0999 V2000
    2.5369   -1.0715    0.0000 O   0  0  0  0  0  0  0  0  0  0  0  0
    5.1350   -1.5715    0.0000 O   0  0  0  0  0  0  0  0  0  0  0  0
    3.4030   -1.5715    0.0000 O   0  0  0  0  0  0  0  0  0  0  0  0
    6.1056   -4.0660    0.0000 N   0  0  0  0  0  0  0  0  0  0  0  0
    7.5837   -3.4079    0.0000 N   0  0  0  0  0  0  0  0  0  0  0  0
    7.0837   -4.2739    0.0000 N   0  0  0  0  0  0  0  0  0  0  0  0
    5.1350    3.4285    0.0000 C   0  0  1  0  0  0  0  0  0  0  0  0
    5.1350    4.4285    0.0000 C   0  0  2  0  0  0  0  0  0  0  0  0
    6.0290    4.9632    0.0000 C   0  0  0  0  0  0  0  0  0  0  0  0
    4.2690    2.9285    0.0000 C   0  0  3  0  0  0  0  0  0  0  0  0
    6.0290    2.8939    0.0000 C   0  0  0  0  0  0  0  0  0  0  0  0
    4.2690    4.9285    0.0000 C   0  0  0  0  0  0  0  0  0  0  0  0
    6.9350    4.4493    0.0000 C   0  0  0  0  0  0  0  0  0  0  0  0
    6.9350    3.4077    0.0000 C   0  0  0  0  0  0  0  0  0  0  0  0
    5.1350    2.4285    0.0000 C   0  0  0  0  0  0  0  0  0  0  0  0
    3.4030    4.4285    0.0000 C   0  0  0  0  0  0  0  0  0  0  0  0
    3.4030    3.4285    0.0000 C   0  0  0  0  0  0  0  0  0  0  0  0
    6.5189    5.8349    0.0000 C   0  0  0  0  0  0  0  0  0  0  0  0
    5.5190    5.8234    0.0000 C   0  0  0  0  0  0  0  0  0  0  0  0
    4.2690    1.9285    0.0000 C   0  0  0  0  0  0  0  0  0  0  0  0
    2.5369    2.9285    0.0000 C   0  0  0  0  0  0  0  0  0  0  0  0
    3.4030    1.4285    0.0000 C   0  0  0  0  0  0  0  0  0  0  0  0
    3.4030    0.4285    0.0000 C   0  0  0  0  0  0  0  0  0  0  0  0
    4.2690   -0.0715    0.0000 C   0  0  0  0  0  0  0  0  0  0  0  0
    2.5369   -0.0715    0.0000 C   0  0  0  0  0  0  0  0  0  0  0  0
    4.2690   -1.0715    0.0000 C   0  0  0  0  0  0  0  0  0  0  0  0
    5.1350   -2.5715    0.0000 C   0  0  0  0  0  0  0  0  0  0  0  0
    6.0010   -3.0715    0.0000 C   0  0  0  0  0  0  0  0  0  0  0  0
    6.9146   -2.6647    0.0000 C   0  0  0  0  0  0  0  0  0  0  0  0
    8.5782   -3.3034    0.0000 C   0  0  0  0  0  0  0  0  0  0  0  0
    9.1660   -4.1124    0.0000 C   0  0  0  0  0  0  0  0  0  0  0  0
   10.1605   -4.0078    0.0000 C   0  0  0  0  0  0  0  0  0  0  0  0
    8.7593   -5.0259    0.0000 C   0  0  0  0  0  0  0  0  0  0  0  0
   10.5673   -3.0943    0.0000 C   0  0  0  0  0  0  0  0  0  0  0  0
   10.7483   -4.8169    0.0000 C   0  0  0  0  0  0  0  0  0  0  0  0
    9.3471   -5.8349    0.0000 C   0  0  0  0  0  0  0  0  0  0  0  0
   10.3416   -5.7304    0.0000 C   0  0  0  0  0  0  0  0  0  0  0  0
   11.5618   -2.9898    0.0000 C   0  0  0  0  0  0  0  0  0  0  0  0
    9.9795   -2.2853    0.0000 C   0  0  0  0  0  0  0  0  0  0  0  0
   11.9685   -2.0762    0.0000 C   0  0  0  0  0  0  0  0  0  0  0  0
   10.3862   -1.3717    0.0000 C   0  0  0  0  0  0  0  0  0  0  0  0
   11.3808   -1.2672    0.0000 C   0  0  0  0  0  0  0  0  0  0  0  0
    5.1285    5.2785    0.0000 H   0  0  0  0  0  0  0  0  0  0  0  0
    3.7320    2.6185    0.0000 H   0  0  0  0  0  0  0  0  0  0  0  0
    5.6244    2.4241    0.0000 H   0  0  0  0  0  0  0  0  0  0  0  0
    6.4226    2.4148    0.0000 H   0  0  0  0  0  0  0  0  0  0  0  0
    4.6675    5.4035    0.0000 H   0  0  0  0  0  0  0  0  0  0  0  0
    3.8705    5.4035    0.0000 H   0  0  0  0  0  0  0  0  0  0  0  0
    7.5459    4.3432    0.0000 H   0  0  0  0  0  0  0  0  0  0  0  0
    7.1441    5.0330    0.0000 H   0  0  0  0  0  0  0  0  0  0  0  0
    7.1441    2.8240    0.0000 H   0  0  0  0  0  0  0  0  0  0  0  0
    7.5459    3.5138    0.0000 H   0  0  0  0  0  0  0  0  0  0  0  0
    4.5150    2.4285    0.0000 H   0  0  0  0  0  0  0  0  0  0  0  0
    5.1350    1.8085    0.0000 H   0  0  0  0  0  0  0  0  0  0  0  0
    5.7550    2.4285    0.0000 H   0  0  0  0  0  0  0  0  0  0  0  0
    3.1909    5.0111    0.0000 H   0  0  0  0  0  0  0  0  0  0  0  0
    2.7924    4.3209    0.0000 H   0  0  0  0  0  0  0  0  0  0  0  0
    7.0594    5.5312    0.0000 H   0  0  0  0  0  0  0  0  0  0  0  0
    6.8227    6.3754    0.0000 H   0  0  0  0  0  0  0  0  0  0  0  0
    5.9784    6.1387    0.0000 H   0  0  0  0  0  0  0  0  0  0  0  0
    6.0523    6.1396    0.0000 H   0  0  0  0  0  0  0  0  0  0  0  0
    5.2028    6.3567    0.0000 H   0  0  0  0  0  0  0  0  0  0  0  0
    4.9857    5.5072    0.0000 H   0  0  0  0  0  0  0  0  0  0  0  0
    4.4810    1.3459    0.0000 H   0  0  0  0  0  0  0  0  0  0  0  0
    4.8796    2.0362    0.0000 H   0  0  0  0  0  0  0  0  0  0  0  0
    2.0000    3.2385    0.0000 H   0  0  0  0  0  0  0  0  0  0  0  0
    2.5369    2.3085    0.0000 H   0  0  0  0  0  0  0  0  0  0  0  0
    2.8660    1.7385    0.0000 H   0  0  0  0  0  0  0  0  0  0  0  0
    4.8796   -0.1791    0.0000 H   0  0  0  0  0  0  0  0  0  0  0  0
    4.4810    0.5111    0.0000 H   0  0  0  0  0  0  0  0  0  0  0  0
    2.0000    0.2385    0.0000 H   0  0  0  0  0  0  0  0  0  0  0  0
    4.5244   -2.4638    0.0000 H   0  0  0  0  0  0  0  0  0  0  0  0
    4.9230   -3.1541    0.0000 H   0  0  0  0  0  0  0  0  0  0  0  0
    7.0435   -2.0583    0.0000 H   0  0  0  0  0  0  0  0  0  0  0  0
    9.1355   -3.0316    0.0000 H   0  0  0  0  0  0  0  0  0  0  0  0
    8.4073   -2.7074    0.0000 H   0  0  0  0  0  0  0  0  0  0  0  0
    8.1427   -5.0907    0.0000 H   0  0  0  0  0  0  0  0  0  0  0  0
   11.3649   -4.7520    0.0000 H   0  0  0  0  0  0  0  0  0  0  0  0
    9.0949   -6.4013    0.0000 H   0  0  0  0  0  0  0  0  0  0  0  0
   10.7060   -6.2320    0.0000 H   0  0  0  0  0  0  0  0  0  0  0  0
   11.9262   -3.4914    0.0000 H   0  0  0  0  0  0  0  0  0  0  0  0
    9.3629   -2.3501    0.0000 H   0  0  0  0  0  0  0  0  0  0  0  0
   12.5851   -2.0114    0.0000 H   0  0  0  0  0  0  0  0  0  0  0  0
   10.0218   -0.8701    0.0000 H   0  0  0  0  0  0  0  0  0  0  0  0
   11.6329   -0.7008    0.0000 H   0  0  0  0  0  0  0  0  0  0  0  0
  1 25  2  0  0  0  0
  2 26  1  0  0  0  0
  2 27  1  0  0  0  0
  3 26  2  0  0  0  0
  4  6  2  0  0  0  0
  4 28  1  0  0  0  0
  5  6  1  0  0  0  0
  5 29  1  0  0  0  0
  5 30  1  0  0  0  0
  7  8  1  0  0  0  0
  7 10  1  0  0  0  0
  7 11  1  0  0  0  0
  7 15  1  1  0  0  0
  8  9  1  0  0  0  0
  8 12  1  0  0  0  0
  8 43  1  6  0  0  0
  9 13  1  0  0  0  0
  9 18  1  0  0  0  0
  9 19  1  0  0  0  0
 10 17  1  0  0  0  0
 10 20  1  0  0  0  0
 10 44  1  0  0  0  0
 11 14  1  0  0  0  0
 11 45  1  0  0  0  0
 11 46  1  0  0  0  0
 12 16  1  0  0  0  0
 12 47  1  0  0  0  0
 12 48  1  0  0  0  0
 13 14  1  0  0  0  0
 13 49  1  0  0  0  0
 13 50  1  0  0  0  0
 14 51  1  0  0  0  0
 14 52  1  0  0  0  0
 15 53  1  0  0  0  0
 15 54  1  0  0  0  0
 15 55  1  0  0  0  0
 16 17  1  0  0  0  0
 16 56  1  0  0  0  0
 16 57  1  0  0  0  0
 17 21  2  0  0  0  0
 18 58  1  0  0  0  0
 18 59  1  0  0  0  0
 18 60  1  0  0  0  0
 19 61  1  0  0  0  0
 19 62  1  0  0  0  0
 19 63  1  0  0  0  0
 20 22  1  0  0  0  0
 20 64  1  0  0  0  0
 20 65  1  0  0  0  0
 21 66  1  0  0  0  0
 21 67  1  0  0  0  0
 22 23  2  0  0  0  0
 22 68  1  0  0  0  0
 23 24  1  0  0  0  0
 23 25  1  0  0  0  0
 24 26  1  0  0  0  0
 24 69  1  0  0  0  0
 24 70  1  0  0  0  0
 25 71  1  0  0  0  0
 27 28  1  0  0  0  0
 27 72  1  0  0  0  0
 27 73  1  0  0  0  0
 28 29  2  0  0  0  0
 29 74  1  0  0  0  0
 30 31  1  0  0  0  0
 30 75  1  0  0  0  0
 30 76  1  0  0  0  0
 31 32  1  0  0  0  0
 31 33  2  0  0  0  0
 32 34  1  0  0  0  0
 32 35  2  0  0  0  0
 33 36  1  0  0  0  0
 33 77  1  0  0  0  0
 34 38  2  0  0  0  0
 34 39  1  0  0  0  0
 35 37  1  0  0  0  0
 35 78  1  0  0  0  0
 36 37  2  0  0  0  0
 36 79  1  0  0  0  0
 37 80  1  0  0  0  0
 38 40  1  0  0  0  0
 38 81  1  0  0  0  0
 39 41  2  0  0  0  0
 39 82  1  0  0  0  0
 40 42  2  0  0  0  0
 40 83  1  0  0  0  0
 41 42  1  0  0  0  0
 41 84  1  0  0  0  0
 42 85  1  0  0  0  0
M  END
> <PUBCHEM_COMPOUND_CID>
145949153

> <PUBCHEM_COMPOUND_CANONICALIZED>
1

> <PUBCHEM_CACTVS_COMPLEXITY>
985

> <PUBCHEM_CACTVS_HBOND_ACCEPTOR>
5

> <PUBCHEM_CACTVS_HBOND_DONOR>
0

> <PUBCHEM_CACTVS_ROTATABLE_BOND>
11

> <PUBCHEM_CACTVS_SUBSKEYS>
AAADcfB/MAAAAAAAAAAAAAAAAAAAAWAAAAAwYMGAAAAAAADB0AAAHgAIAAAADwjhngY+iJIIBACqAzz3zASCBAQxkgAY2AE4fMgKZDLAsRmXIAhmwADIqYcTgMAPgAAAAAAQAAAAAAQAACAAAAAAAAAAAA==

> <PUBCHEM_IUPAC_OPENEYE_NAME>
[1-[(2-phenylphenyl)methyl]triazol-4-yl]methyl (E)-5-[(4aS,8aS)-5,5,8a-trimethyl-2-methylene-decalin-1-yl]-3-formyl-pent-3-enoate

> <PUBCHEM_IUPAC_CAS_NAME>
(E)-5-[(4aS,8aS)-5,5,8a-trimethyl-2-methylene-3,4,4a,6,7,8-hexahydro-1H-naphthalen-1-yl]-3-formyl-3-pentenoic acid [1-[(2-phenylphenyl)methyl]-4-triazolyl]methyl ester

> <PUBCHEM_IUPAC_NAME_MARKUP>
[1-[(2-phenylphenyl)methyl]triazol-4-yl]methyl (<I>E</I>)-5-[(4<I>a</I><I>S</I>,8<I>a</I><I>S</I>)-5,5,8<I>a</I>-trimethyl-2-methylidene-3,4,4<I>a</I>,6,7,8-hexahydro-1<I>H</I>-naphthalen-1-yl]-3-formylpent-3-enoate

> <PUBCHEM_IUPAC_NAME>
[1-[(2-phenylphenyl)methyl]triazol-4-yl]methyl (E)-5-[(4aS,8aS)-5,5,8a-trimethyl-2-methylidene-3,4,4a,6,7,8-hexahydro-1H-naphthalen-1-yl]-3-formylpent-3-enoate

> <PUBCHEM_IUPAC_SYSTEMATIC_NAME>
[1-[(2-phenylphenyl)methyl]-1,2,3-triazol-4-yl]methyl (E)-5-[(4aS,8aS)-5,5,8a-trimethyl-2-methylidene-3,4,4a,6,7,8-hexahydro-1H-naphthalen-1-yl]-3-methanoyl-pent-3-enoate

> <PUBCHEM_IUPAC_TRADITIONAL_NAME>
(E)-5-[(4aS,8aS)-5,5,8a-trimethyl-2-methylene-decalin-1-yl]-3-formyl-pent-3-enoic acid [1-(2-phenylbenzyl)triazol-4-yl]methyl ester

> <PUBCHEM_IUPAC_INCHI>
InChI=1S/C36H43N3O3/c1-26-15-18-33-35(2,3)19-10-20-36(33,4)32(26)17-16-27(24-40)21-34(41)42-25-30-23-39(38-37-30)22-29-13-8-9-14-31(29)28-11-6-5-7-12-28/h5-9,11-14,16,23-24,32-33H,1,10,15,17-22,25H2,2-4H3/b27-16+/t32?,33-,36+/m0/s1

> <PUBCHEM_IUPAC_INCHIKEY>
UMODJNYTULVTCJ-HGXJMCTDSA-N

> <PUBCHEM_XLOGP3_AA>
7.4

> <PUBCHEM_EXACT_MASS>
565.33044224

> <PUBCHEM_MOLECULAR_FORMULA>
C36H43N3O3

> <PUBCHEM_MOLECULAR_WEIGHT>
565.7

> <PUBCHEM_OPENEYE_CAN_SMILES>
CC1(CCCC2(C1CCC(=C)C2CC=C(CC(=O)OCC3=CN(N=N3)CC4=CC=CC=C4C5=CC=CC=C5)C=O)C)C

> <PUBCHEM_OPENEYE_ISO_SMILES>
C[C@]12CCCC([C@@H]1CCC(=C)C2C/C=C(\CC(=O)OCC3=CN(N=N3)CC4=CC=CC=C4C5=CC=CC=C5)/C=O)(C)C

> <PUBCHEM_CACTVS_TPSA>
74.1

> <PUBCHEM_MONOISOTOPIC_WEIGHT>
565.33044224

> <PUBCHEM_TOTAL_CHARGE>
0

> <PUBCHEM_HEAVY_ATOM_COUNT>
42

> <PUBCHEM_ATOM_DEF_STEREO_COUNT>
2

> <PUBCHEM_ATOM_UDEF_STEREO_COUNT>
1

> <PUBCHEM_BOND_DEF_STEREO_COUNT>
1

> <PUBCHEM_BOND_UDEF_STEREO_COUNT>
0

> <PUBCHEM_ISOTOPIC_ATOM_COUNT>
0

> <PUBCHEM_COMPONENT_COUNT>
1

> <PUBCHEM_CACTVS_TAUTO_COUNT>
-1

> <PUBCHEM_COORDINATE_TYPE>
1
5
255

> <PUBCHEM_BONDANNOTATIONS>
10  20  3
28  29  8
31  32  8
31  33  8
32  35  8
33  36  8
34  38  8
34  39  8
35  37  8
36  37  8
38  40  8
39  41  8
4  28  8
4  6  8
40  42  8
41  42  8
5  29  8
5  6  8
7  15  5
8  43  6

$$$$
