145952235
  -OEChem-02152223592D

 53 54  0     1  0  0  0  0  0999 V2000
    2.5369   -2.8932    0.0000 O   0  0  0  0  0  0  0  0  0  0  0  0
    5.1350   -3.3932    0.0000 O   0  0  0  0  0  0  0  0  0  0  0  0
    3.4030   -3.3932    0.0000 O   0  0  0  0  0  0  0  0  0  0  0  0
    5.1350    1.6068    0.0000 C   0  0  1  0  0  0  0  0  0  0  0  0
    5.1350    2.6068    0.0000 C   0  0  2  0  0  0  0  0  0  0  0  0
    6.0290    3.1415    0.0000 C   0  0  0  0  0  0  0  0  0  0  0  0
    4.2690    1.1068    0.0000 C   0  0  3  0  0  0  0  0  0  0  0  0
    6.0290    1.0721    0.0000 C   0  0  0  0  0  0  0  0  0  0  0  0
    4.2690    3.1068    0.0000 C   0  0  0  0  0  0  0  0  0  0  0  0
    6.9350    2.6276    0.0000 C   0  0  0  0  0  0  0  0  0  0  0  0
    6.9350    1.5860    0.0000 C   0  0  0  0  0  0  0  0  0  0  0  0
    5.1350    0.6068    0.0000 C   0  0  0  0  0  0  0  0  0  0  0  0
    3.4030    2.6068    0.0000 C   0  0  0  0  0  0  0  0  0  0  0  0
    3.4030    1.6068    0.0000 C   0  0  0  0  0  0  0  0  0  0  0  0
    6.5189    4.0132    0.0000 C   0  0  0  0  0  0  0  0  0  0  0  0
    5.5190    4.0016    0.0000 C   0  0  0  0  0  0  0  0  0  0  0  0
    4.2690    0.1068    0.0000 C   0  0  0  0  0  0  0  0  0  0  0  0
    2.5369    1.1068    0.0000 C   0  0  0  0  0  0  0  0  0  0  0  0
    3.4030   -0.3932    0.0000 C   0  0  0  0  0  0  0  0  0  0  0  0
    3.4030   -1.3932    0.0000 C   0  0  0  0  0  0  0  0  0  0  0  0
    4.2690   -1.8932    0.0000 C   0  0  0  0  0  0  0  0  0  0  0  0
    2.5369   -1.8932    0.0000 C   0  0  0  0  0  0  0  0  0  0  0  0
    4.2690   -2.8932    0.0000 C   0  0  0  0  0  0  0  0  0  0  0  0
    5.1285    3.4568    0.0000 H   0  0  0  0  0  0  0  0  0  0  0  0
    3.7320    0.7968    0.0000 H   0  0  0  0  0  0  0  0  0  0  0  0
    5.6244    0.6023    0.0000 H   0  0  0  0  0  0  0  0  0  0  0  0
    6.4226    0.5931    0.0000 H   0  0  0  0  0  0  0  0  0  0  0  0
    4.6675    3.5817    0.0000 H   0  0  0  0  0  0  0  0  0  0  0  0
    3.8705    3.5817    0.0000 H   0  0  0  0  0  0  0  0  0  0  0  0
    7.5459    2.5215    0.0000 H   0  0  0  0  0  0  0  0  0  0  0  0
    7.1441    3.2113    0.0000 H   0  0  0  0  0  0  0  0  0  0  0  0
    7.1441    1.0023    0.0000 H   0  0  0  0  0  0  0  0  0  0  0  0
    7.5459    1.6921    0.0000 H   0  0  0  0  0  0  0  0  0  0  0  0
    4.5150    0.6068    0.0000 H   0  0  0  0  0  0  0  0  0  0  0  0
    5.1350   -0.0132    0.0000 H   0  0  0  0  0  0  0  0  0  0  0  0
    5.7550    0.6068    0.0000 H   0  0  0  0  0  0  0  0  0  0  0  0
    3.1909    3.1894    0.0000 H   0  0  0  0  0  0  0  0  0  0  0  0
    2.7924    2.4991    0.0000 H   0  0  0  0  0  0  0  0  0  0  0  0
    7.0594    3.7094    0.0000 H   0  0  0  0  0  0  0  0  0  0  0  0
    6.8227    4.5537    0.0000 H   0  0  0  0  0  0  0  0  0  0  0  0
    5.9784    4.3170    0.0000 H   0  0  0  0  0  0  0  0  0  0  0  0
    6.0523    4.3178    0.0000 H   0  0  0  0  0  0  0  0  0  0  0  0
    5.2028    4.5350    0.0000 H   0  0  0  0  0  0  0  0  0  0  0  0
    4.9857    3.6854    0.0000 H   0  0  0  0  0  0  0  0  0  0  0  0
    4.4810   -0.4758    0.0000 H   0  0  0  0  0  0  0  0  0  0  0  0
    4.8796    0.2145    0.0000 H   0  0  0  0  0  0  0  0  0  0  0  0
    2.0000    1.4168    0.0000 H   0  0  0  0  0  0  0  0  0  0  0  0
    2.5369    0.4868    0.0000 H   0  0  0  0  0  0  0  0  0  0  0  0
    2.8660   -0.0832    0.0000 H   0  0  0  0  0  0  0  0  0  0  0  0
    4.8796   -2.0009    0.0000 H   0  0  0  0  0  0  0  0  0  0  0  0
    4.4810   -1.3106    0.0000 H   0  0  0  0  0  0  0  0  0  0  0  0
    2.0000   -1.5832    0.0000 H   0  0  0  0  0  0  0  0  0  0  0  0
    5.1350   -4.0132    0.0000 H   0  0  0  0  0  0  0  0  0  0  0  0
  1 22  2  0  0  0  0
  2 23  1  0  0  0  0
  2 53  1  0  0  0  0
  3 23  2  0  0  0  0
  4  5  1  0  0  0  0
  4  7  1  0  0  0  0
  4  8  1  0  0  0  0
  4 12  1  1  0  0  0
  5  6  1  0  0  0  0
  5  9  1  0  0  0  0
  5 24  1  6  0  0  0
  6 10  1  0  0  0  0
  6 15  1  0  0  0  0
  6 16  1  0  0  0  0
  7 14  1  0  0  0  0
  7 17  1  0  0  0  0
  7 25  1  0  0  0  0
  8 11  1  0  0  0  0
  8 26  1  0  0  0  0
  8 27  1  0  0  0  0
  9 13  1  0  0  0  0
  9 28  1  0  0  0  0
  9 29  1  0  0  0  0
 10 11  1  0  0  0  0
 10 30  1  0  0  0  0
 10 31  1  0  0  0  0
 11 32  1  0  0  0  0
 11 33  1  0  0  0  0
 12 34  1  0  0  0  0
 12 35  1  0  0  0  0
 12 36  1  0  0  0  0
 13 14  1  0  0  0  0
 13 37  1  0  0  0  0
 13 38  1  0  0  0  0
 14 18  2  0  0  0  0
 15 39  1  0  0  0  0
 15 40  1  0  0  0  0
 15 41  1  0  0  0  0
 16 42  1  0  0  0  0
 16 43  1  0  0  0  0
 16 44  1  0  0  0  0
 17 19  1  0  0  0  0
 17 45  1  0  0  0  0
 17 46  1  0  0  0  0
 18 47  1  0  0  0  0
 18 48  1  0  0  0  0
 19 20  2  0  0  0  0
 19 49  1  0  0  0  0
 20 21  1  0  0  0  0
 20 22  1  0  0  0  0
 21 23  1  0  0  0  0
 21 50  1  0  0  0  0
 21 51  1  0  0  0  0
 22 52  1  0  0  0  0
M  END
> <PUBCHEM_COMPOUND_CID>
145952235

> <PUBCHEM_COMPOUND_CANONICALIZED>
1

> <PUBCHEM_CACTVS_COMPLEXITY>
529

> <PUBCHEM_CACTVS_HBOND_ACCEPTOR>
3

> <PUBCHEM_CACTVS_HBOND_DONOR>
1

> <PUBCHEM_CACTVS_ROTATABLE_BOND>
5

> <PUBCHEM_CACTVS_SUBSKEYS>
AAADceB4MAAAAAAAAAAAAAAAAAAAAAAAAAAwYAAAAAAAAADAAAAAGgAACAAADwCggAICCAAAAgCIAijSiAAAAAAgAAAACAEAAEgAABIAAQAAQAAEwAAIAYMDgMAPgAAAAAAAAAAAAAQAACAAAAAAAAAAAA==

> <PUBCHEM_IUPAC_OPENEYE_NAME>
(E)-5-[(4aS,8aS)-5,5,8a-trimethyl-2-methylene-decalin-1-yl]-3-formyl-pent-3-enoic acid

> <PUBCHEM_IUPAC_CAS_NAME>
(E)-5-[(4aS,8aS)-5,5,8a-trimethyl-2-methylene-3,4,4a,6,7,8-hexahydro-1H-naphthalen-1-yl]-3-formyl-3-pentenoic acid

> <PUBCHEM_IUPAC_NAME_MARKUP>
(<I>E</I>)-5-[(4<I>a</I><I>S</I>,8<I>a</I><I>S</I>)-5,5,8<I>a</I>-trimethyl-2-methylidene-3,4,4<I>a</I>,6,7,8-hexahydro-1<I>H</I>-naphthalen-1-yl]-3-formylpent-3-enoic acid

> <PUBCHEM_IUPAC_NAME>
(E)-5-[(4aS,8aS)-5,5,8a-trimethyl-2-methylidene-3,4,4a,6,7,8-hexahydro-1H-naphthalen-1-yl]-3-formylpent-3-enoic acid

> <PUBCHEM_IUPAC_SYSTEMATIC_NAME>
(E)-5-[(4aS,8aS)-5,5,8a-trimethyl-2-methylidene-3,4,4a,6,7,8-hexahydro-1H-naphthalen-1-yl]-3-methanoyl-pent-3-enoic acid

> <PUBCHEM_IUPAC_TRADITIONAL_NAME>
(E)-5-[(4aS,8aS)-5,5,8a-trimethyl-2-methylene-decalin-1-yl]-3-formyl-pent-3-enoic acid

> <PUBCHEM_IUPAC_INCHI>
InChI=1S/C20H30O3/c1-14-6-9-17-19(2,3)10-5-11-20(17,4)16(14)8-7-15(13-21)12-18(22)23/h7,13,16-17H,1,5-6,8-12H2,2-4H3,(H,22,23)/b15-7+/t16?,17-,20+/m0/s1

> <PUBCHEM_IUPAC_INCHIKEY>
ZAWWSYIDZKWRAI-MKUWRSTISA-N

> <PUBCHEM_XLOGP3_AA>
4.5

> <PUBCHEM_EXACT_MASS>
318.21949481

> <PUBCHEM_MOLECULAR_FORMULA>
C20H30O3

> <PUBCHEM_MOLECULAR_WEIGHT>
318.4

> <PUBCHEM_OPENEYE_CAN_SMILES>
CC1(CCCC2(C1CCC(=C)C2CC=C(CC(=O)O)C=O)C)C

> <PUBCHEM_OPENEYE_ISO_SMILES>
C[C@]12CCCC([C@@H]1CCC(=C)C2C/C=C(\CC(=O)O)/C=O)(C)C

> <PUBCHEM_CACTVS_TPSA>
54.4

> <PUBCHEM_MONOISOTOPIC_WEIGHT>
318.21949481

> <PUBCHEM_TOTAL_CHARGE>
0

> <PUBCHEM_HEAVY_ATOM_COUNT>
23

> <PUBCHEM_ATOM_DEF_STEREO_COUNT>
2

> <PUBCHEM_ATOM_UDEF_STEREO_COUNT>
1

> <PUBCHEM_BOND_DEF_STEREO_COUNT>
1

> <PUBCHEM_BOND_UDEF_STEREO_COUNT>
0

> <PUBCHEM_ISOTOPIC_ATOM_COUNT>
0

> <PUBCHEM_COMPONENT_COUNT>
1

> <PUBCHEM_CACTVS_TAUTO_COUNT>
-1

> <PUBCHEM_COORDINATE_TYPE>
1
5
255

> <PUBCHEM_BONDANNOTATIONS>
4  12  5
5  24  6
7  17  3

$$$$
