52940767
  -OEChem-02162201112D

125127  0     1  0  0  0  0  0999 V2000
   14.5194    6.0285    0.0000 S   0  0  0  0  0  0  0  0  0  0  0  0
    3.4030   -2.6192    0.0000 S   0  0  0  0  0  0  0  0  0  0  0  0
   15.0483    0.4789    0.0000 O   0  0  0  0  0  0  0  0  0  0  0  0
   13.4735   -2.7645    0.0000 O   0  0  0  0  0  0  0  0  0  0  0  0
   15.4692    1.7744    0.0000 O   0  0  0  0  0  0  0  0  0  0  0  0
   14.1972   -5.6192    0.0000 O   0  0  0  0  0  0  0  0  0  0  0  0
   17.6840    4.6195    0.0000 O   0  0  0  0  0  0  0  0  0  0  0  0
   19.8541    3.1060    0.0000 O   0  0  0  0  0  0  0  0  0  0  0  0
   11.5991   -3.1192    0.0000 O   0  0  0  0  0  0  0  0  0  0  0  0
    8.8671   -5.6192    0.0000 O   0  0  0  0  0  0  0  0  0  0  0  0
    6.1350   -6.1192    0.0000 O   0  0  0  0  0  0  0  0  0  0  0  0
    6.1350   -3.1192    0.0000 O   0  0  0  0  0  0  0  0  0  0  0  0
    9.7331   -1.1192    0.0000 O   0  0  0  0  0  0  0  0  0  0  0  0
    2.5369   -4.1192    0.0000 O   0  0  0  0  0  0  0  0  0  0  0  0
    3.4030   -5.6192    0.0000 O   0  0  0  0  0  0  0  0  0  0  0  0
   17.0515    1.0699    0.0000 N   0  0  0  0  0  0  0  0  0  0  0  0
   15.1677   -3.1246    0.0000 N   0  0  0  0  0  0  0  0  0  0  0  0
   15.5836   -1.1683    0.0000 N   0  0  0  0  0  0  0  0  0  0  0  0
   16.2827    3.6015    0.0000 N   0  0  0  0  0  0  0  0  0  0  0  0
   13.3312   -4.1192    0.0000 N   0  0  0  0  0  0  0  0  0  0  0  0
   12.1293   -0.5295    0.0000 N   0  0  0  0  0  0  0  0  0  0  0  0
   11.6293   -2.0683    0.0000 N   0  0  0  0  0  0  0  0  0  0  0  0
   10.5991   -4.6192    0.0000 N   0  0  0  0  0  0  0  0  0  0  0  0
   16.5084    6.2376    0.0000 N   0  0  0  0  0  0  0  0  0  0  0  0
   19.6730    4.8286    0.0000 N   0  0  0  0  0  0  0  0  0  0  0  0
    7.8671   -4.1192    0.0000 N   0  0  0  0  0  0  0  0  0  0  0  0
    5.1350   -4.6192    0.0000 N   0  0  0  0  0  0  0  0  0  0  0  0
    8.0010   -1.1192    0.0000 N   0  0  0  0  0  0  0  0  0  0  0  0
   16.7425    0.1188    0.0000 C   0  0  1  0  0  0  0  0  0  0  0  0
   17.5515   -0.4690    0.0000 C   0  0  0  0  0  0  0  0  0  0  0  0
   15.0632   -4.1192    0.0000 C   0  0  2  0  0  0  0  0  0  0  0  0
   18.3606    0.1188    0.0000 C   0  0  0  0  0  0  0  0  0  0  0  0
   18.0515    1.0699    0.0000 C   0  0  0  0  0  0  0  0  0  0  0  0
   15.9768   -4.5259    0.0000 C   0  0  0  0  0  0  0  0  0  0  0  0
   16.1459   -2.9167    0.0000 C   0  0  0  0  0  0  0  0  0  0  0  0
   16.6459   -3.7828    0.0000 C   0  0  0  0  0  0  0  0  0  0  0  0
   14.6325   -1.4774    0.0000 C   0  0  2  0  0  0  0  0  0  0  0  0
   15.7915   -0.1902    0.0000 C   0  0  0  0  0  0  0  0  0  0  0  0
   14.4246   -2.4555    0.0000 C   0  0  0  0  0  0  0  0  0  0  0  0
   16.4638    1.8789    0.0000 C   0  0  0  0  0  0  0  0  0  0  0  0
   16.8705    2.7924    0.0000 C   0  0  2  0  0  0  0  0  0  0  0  0
   13.8894   -0.8082    0.0000 C   0  0  0  0  0  0  0  0  0  0  0  0
   14.1972   -4.6192    0.0000 C   0  0  0  0  0  0  0  0  0  0  0  0
   17.8650    2.8970    0.0000 C   0  0  0  0  0  0  0  0  0  0  0  0
   12.9383   -1.1172    0.0000 C   0  0  0  0  0  0  0  0  0  0  0  0
   18.2718    3.8105    0.0000 C   0  0  0  0  0  0  0  0  0  0  0  0
   12.4651   -4.6192    0.0000 C   0  0  0  0  0  0  0  0  0  0  0  0
   16.6895    4.5150    0.0000 C   0  0  0  0  0  0  0  0  0  0  0  0
   12.6293   -2.0683    0.0000 C   0  0  0  0  0  0  0  0  0  0  0  0
   16.1017    5.3240    0.0000 C   0  0  2  0  0  0  0  0  0  0  0  0
   19.2663    3.9150    0.0000 C   0  0  0  0  0  0  0  0  0  0  0  0
   11.5991   -4.1192    0.0000 C   0  0  0  0  0  0  0  0  0  0  0  0
   11.3203   -1.1172    0.0000 C   0  0  0  0  0  0  0  0  0  0  0  0
    9.7331   -4.1192    0.0000 C   0  0  2  0  0  0  0  0  0  0  0  0
   15.1071    5.2195    0.0000 C   0  0  0  0  0  0  0  0  0  0  0  0
    9.7331   -3.1192    0.0000 C   0  0  0  0  0  0  0  0  0  0  0  0
    8.8671   -4.6192    0.0000 C   0  0  0  0  0  0  0  0  0  0  0  0
    8.8671   -2.6192    0.0000 C   0  0  0  0  0  0  0  0  0  0  0  0
    7.0010   -4.6192    0.0000 C   0  0  2  0  0  0  0  0  0  0  0  0
    7.0010   -5.6192    0.0000 C   0  0  1  0  0  0  0  0  0  0  0  0
    6.1350   -4.1192    0.0000 C   0  0  0  0  0  0  0  0  0  0  0  0
    8.8671   -1.6192    0.0000 C   0  0  0  0  0  0  0  0  0  0  0  0
    7.8671   -6.1192    0.0000 C   0  0  0  0  0  0  0  0  0  0  0  0
    4.2690   -4.1192    0.0000 C   0  0  2  0  0  0  0  0  0  0  0  0
    4.2690   -3.1192    0.0000 C   0  0  0  0  0  0  0  0  0  0  0  0
    3.4030   -4.6192    0.0000 C   0  0  0  0  0  0  0  0  0  0  0  0
   16.3041    0.5572    0.0000 H   0  0  0  0  0  0  0  0  0  0  0  0
   17.1367   -0.9297    0.0000 H   0  0  0  0  0  0  0  0  0  0  0  0
   17.9664   -0.9297    0.0000 H   0  0  0  0  0  0  0  0  0  0  0  0
   14.5432   -3.7815    0.0000 H   0  0  0  0  0  0  0  0  0  0  0  0
   18.6706   -0.4181    0.0000 H   0  0  0  0  0  0  0  0  0  0  0  0
   18.9270    0.3710    0.0000 H   0  0  0  0  0  0  0  0  0  0  0  0
   18.6580    1.1988    0.0000 H   0  0  0  0  0  0  0  0  0  0  0  0
   17.9867    1.6865    0.0000 H   0  0  0  0  0  0  0  0  0  0  0  0
   15.6668   -5.0628    0.0000 H   0  0  0  0  0  0  0  0  0  0  0  0
   16.4783   -4.8903    0.0000 H   0  0  0  0  0  0  0  0  0  0  0  0
   16.7123   -2.6646    0.0000 H   0  0  0  0  0  0  0  0  0  0  0  0
   15.9543   -2.3271    0.0000 H   0  0  0  0  0  0  0  0  0  0  0  0
   17.0608   -4.2435    0.0000 H   0  0  0  0  0  0  0  0  0  0  0  0
   17.1475   -3.4183    0.0000 H   0  0  0  0  0  0  0  0  0  0  0  0
   14.7614   -0.8709    0.0000 H   0  0  0  0  0  0  0  0  0  0  0  0
   16.0443   -1.5832    0.0000 H   0  0  0  0  0  0  0  0  0  0  0  0
   16.2539    2.7276    0.0000 H   0  0  0  0  0  0  0  0  0  0  0  0
   14.3779   -0.4265    0.0000 H   0  0  0  0  0  0  0  0  0  0  0  0
   13.5983   -0.2608    0.0000 H   0  0  0  0  0  0  0  0  0  0  0  0
   17.8218    2.2785    0.0000 H   0  0  0  0  0  0  0  0  0  0  0  0
   18.4666    2.7470    0.0000 H   0  0  0  0  0  0  0  0  0  0  0  0
   15.6661    3.5366    0.0000 H   0  0  0  0  0  0  0  0  0  0  0  0
   13.3312   -3.4992    0.0000 H   0  0  0  0  0  0  0  0  0  0  0  0
   18.3150    4.4290    0.0000 H   0  0  0  0  0  0  0  0  0  0  0  0
   17.6702    3.9605    0.0000 H   0  0  0  0  0  0  0  0  0  0  0  0
   12.0666   -5.0941    0.0000 H   0  0  0  0  0  0  0  0  0  0  0  0
   12.8637   -5.0941    0.0000 H   0  0  0  0  0  0  0  0  0  0  0  0
   12.1293    0.0905    0.0000 H   0  0  0  0  0  0  0  0  0  0  0  0
   12.9937   -2.5699    0.0000 H   0  0  0  0  0  0  0  0  0  0  0  0
   16.7183    5.3888    0.0000 H   0  0  0  0  0  0  0  0  0  0  0  0
   10.7306   -0.9257    0.0000 H   0  0  0  0  0  0  0  0  0  0  0  0
   10.2700   -3.8092    0.0000 H   0  0  0  0  0  0  0  0  0  0  0  0
   11.1360   -4.9292    0.0000 H   0  0  0  0  0  0  0  0  0  0  0  0
   14.5499    4.9477    0.0000 H   0  0  0  0  0  0  0  0  0  0  0  0
   15.2780    4.6235    0.0000 H   0  0  0  0  0  0  0  0  0  0  0  0
   16.1440    6.7392    0.0000 H   0  0  0  0  0  0  0  0  0  0  0  0
   17.1250    6.3024    0.0000 H   0  0  0  0  0  0  0  0  0  0  0  0
   10.3437   -3.2268    0.0000 H   0  0  0  0  0  0  0  0  0  0  0  0
    9.9451   -2.5366    0.0000 H   0  0  0  0  0  0  0  0  0  0  0  0
   20.2896    4.8934    0.0000 H   0  0  0  0  0  0  0  0  0  0  0  0
   19.3086    5.3302    0.0000 H   0  0  0  0  0  0  0  0  0  0  0  0
    8.2565   -2.5115    0.0000 H   0  0  0  0  0  0  0  0  0  0  0  0
    8.6550   -3.2018    0.0000 H   0  0  0  0  0  0  0  0  0  0  0  0
    7.5380   -4.9292    0.0000 H   0  0  0  0  0  0  0  0  0  0  0  0
    8.4040   -3.8092    0.0000 H   0  0  0  0  0  0  0  0  0  0  0  0
   13.9028    5.9637    0.0000 H   0  0  0  0  0  0  0  0  0  0  0  0
    7.0010   -6.2392    0.0000 H   0  0  0  0  0  0  0  0  0  0  0  0
    7.5571   -6.6561    0.0000 H   0  0  0  0  0  0  0  0  0  0  0  0
    8.4040   -6.4292    0.0000 H   0  0  0  0  0  0  0  0  0  0  0  0
    8.1771   -5.5822    0.0000 H   0  0  0  0  0  0  0  0  0  0  0  0
    5.6720   -4.9292    0.0000 H   0  0  0  0  0  0  0  0  0  0  0  0
    4.8059   -3.8092    0.0000 H   0  0  0  0  0  0  0  0  0  0  0  0
    6.1350   -6.7392    0.0000 H   0  0  0  0  0  0  0  0  0  0  0  0
    8.0010   -0.4992    0.0000 H   0  0  0  0  0  0  0  0  0  0  0  0
    7.4641   -1.4292    0.0000 H   0  0  0  0  0  0  0  0  0  0  0  0
    4.8796   -3.2268    0.0000 H   0  0  0  0  0  0  0  0  0  0  0  0
    4.4810   -2.5366    0.0000 H   0  0  0  0  0  0  0  0  0  0  0  0
    3.4030   -1.9992    0.0000 H   0  0  0  0  0  0  0  0  0  0  0  0
    2.0000   -4.4292    0.0000 H   0  0  0  0  0  0  0  0  0  0  0  0
  1 55  1  0  0  0  0
  1112  1  0  0  0  0
  2 65  1  0  0  0  0
  2124  1  0  0  0  0
  3 38  2  0  0  0  0
  4 39  2  0  0  0  0
  5 40  2  0  0  0  0
  6 43  2  0  0  0  0
  7 48  2  0  0  0  0
  8 51  2  0  0  0  0
  9 52  2  0  0  0  0
 10 57  2  0  0  0  0
 60 11  1  1  0  0  0
 11119  1  0  0  0  0
 12 61  2  0  0  0  0
 13 62  2  0  0  0  0
 14 66  1  0  0  0  0
 14125  1  0  0  0  0
 15 66  2  0  0  0  0
 16 29  1  0  0  0  0
 16 33  1  0  0  0  0
 16 40  1  0  0  0  0
 17 31  1  0  0  0  0
 17 35  1  0  0  0  0
 17 39  1  0  0  0  0
 37 18  1  6  0  0  0
 18 38  1  0  0  0  0
 18 82  1  0  0  0  0
 41 19  1  1  0  0  0
 19 48  1  0  0  0  0
 19 88  1  0  0  0  0
 20 43  1  0  0  0  0
 20 47  1  0  0  0  0
 20 89  1  0  0  0  0
 21 45  1  0  0  0  0
 21 53  1  0  0  0  0
 21 94  1  0  0  0  0
 22 49  1  0  0  0  0
 22 53  2  0  0  0  0
 23 52  1  0  0  0  0
 54 23  1  1  0  0  0
 23 99  1  0  0  0  0
 50 24  1  6  0  0  0
 24102  1  0  0  0  0
 24103  1  0  0  0  0
 25 51  1  0  0  0  0
 25106  1  0  0  0  0
 25107  1  0  0  0  0
 26 57  1  0  0  0  0
 59 26  1  6  0  0  0
 26111  1  0  0  0  0
 27 61  1  0  0  0  0
 64 27  1  1  0  0  0
 27117  1  0  0  0  0
 28 62  1  0  0  0  0
 28120  1  0  0  0  0
 28121  1  0  0  0  0
 29 30  1  0  0  0  0
 29 38  1  1  0  0  0
 29 67  1  0  0  0  0
 30 32  1  0  0  0  0
 30 68  1  0  0  0  0
 30 69  1  0  0  0  0
 31 34  1  0  0  0  0
 31 43  1  6  0  0  0
 31 70  1  0  0  0  0
 32 33  1  0  0  0  0
 32 71  1  0  0  0  0
 32 72  1  0  0  0  0
 33 73  1  0  0  0  0
 33 74  1  0  0  0  0
 34 36  1  0  0  0  0
 34 75  1  0  0  0  0
 34 76  1  0  0  0  0
 35 36  1  0  0  0  0
 35 77  1  0  0  0  0
 35 78  1  0  0  0  0
 36 79  1  0  0  0  0
 36 80  1  0  0  0  0
 37 39  1  0  0  0  0
 37 42  1  0  0  0  0
 37 81  1  0  0  0  0
 40 41  1  0  0  0  0
 41 44  1  0  0  0  0
 41 83  1  0  0  0  0
 42 45  1  0  0  0  0
 42 84  1  0  0  0  0
 42 85  1  0  0  0  0
 44 46  1  0  0  0  0
 44 86  1  0  0  0  0
 44 87  1  0  0  0  0
 45 49  2  0  0  0  0
 46 51  1  0  0  0  0
 46 90  1  0  0  0  0
 46 91  1  0  0  0  0
 47 52  1  0  0  0  0
 47 92  1  0  0  0  0
 47 93  1  0  0  0  0
 48 50  1  0  0  0  0
 49 95  1  0  0  0  0
 50 55  1  0  0  0  0
 50 96  1  0  0  0  0
 53 97  1  0  0  0  0
 54 56  1  0  0  0  0
 54 57  1  0  0  0  0
 54 98  1  0  0  0  0
 55100  1  0  0  0  0
 55101  1  0  0  0  0
 56 58  1  0  0  0  0
 56104  1  0  0  0  0
 56105  1  0  0  0  0
 58 62  1  0  0  0  0
 58108  1  0  0  0  0
 58109  1  0  0  0  0
 59 60  1  0  0  0  0
 59 61  1  0  0  0  0
 59110  1  0  0  0  0
 60 63  1  0  0  0  0
 60113  1  0  0  0  0
 63114  1  0  0  0  0
 63115  1  0  0  0  0
 63116  1  0  0  0  0
 64 65  1  0  0  0  0
 64 66  1  0  0  0  0
 64118  1  0  0  0  0
 65122  1  0  0  0  0
 65123  1  0  0  0  0
M  END
> <PUBCHEM_COMPOUND_CID>
52940767

> <PUBCHEM_COMPOUND_CANONICALIZED>
1

> <PUBCHEM_CACTVS_COMPLEXITY>
1820

> <PUBCHEM_CACTVS_HBOND_ACCEPTOR>
17

> <PUBCHEM_CACTVS_HBOND_DONOR>
14

> <PUBCHEM_CACTVS_ROTATABLE_BOND>
26

> <PUBCHEM_CACTVS_SUBSKEYS>
AAADcfB//ABgAAAAAAAAAAAAAAAAAWLFgAAAAAAAAAAAAAABgAAAHgQQCAAACDzl1gavmBfJkgSoARX3fAAAgC2xEqABUYG4cAiCeBZA2SGUQAAKtgLQQCAcAwAAAAAAAAAAAAAAAAAAAAAAAAAAAAAAAA==

> <PUBCHEM_IUPAC_OPENEYE_NAME>
(2S)-2-[[(2R,3R)-2-[[(2R)-5-amino-2-[[2-[[(2R)-1-[(2S)-2-[[(2S)-1-[(2S)-5-amino-2-[[(2R)-2-amino-3-sulfanyl-propanoyl]amino]-5-oxo-pentanoyl]pyrrolidine-2-carbonyl]amino]-3-(1H-imidazol-5-yl)propanoyl]pyrrolidine-2-carbonyl]amino]acetyl]amino]-5-oxo-pentanoyl]amino]-3-hydroxy-butanoyl]amino]-3-sulfanyl-propanoic acid

> <PUBCHEM_IUPAC_CAS_NAME>
(2S)-2-[[(2R,3R)-2-[[(2R)-5-amino-2-[[2-[[[(2R)-1-[(2S)-2-[[[(2S)-1-[(2S)-5-amino-2-[[(2R)-2-amino-3-mercapto-1-oxopropyl]amino]-1,5-dioxopentyl]-2-pyrrolidinyl]-oxomethyl]amino]-3-(1H-imidazol-5-yl)-1-oxopropyl]-2-pyrrolidinyl]-oxomethyl]amino]-1-oxoethyl]amino]-1,5-dioxopentyl]amino]-3-hydroxy-1-oxobutyl]amino]-3-mercaptopropanoic acid

> <PUBCHEM_IUPAC_NAME_MARKUP>
(2<I>S</I>)-2-[[(2<I>R</I>,3<I>R</I>)-2-[[(2<I>R</I>)-5-amino-2-[[2-[[(2<I>R</I>)-1-[(2<I>S</I>)-2-[[(2<I>S</I>)-1-[(2<I>S</I>)-5-amino-2-[[(2<I>R</I>)-2-amino-3-sulfanylpropanoyl]amino]-5-oxopentanoyl]pyrrolidine-2-carbonyl]amino]-3-(1<I>H</I>-imidazol-5-yl)propanoyl]pyrrolidine-2-carbonyl]amino]acetyl]amino]-5-oxopentanoyl]amino]-3-hydroxybutanoyl]amino]-3-sulfanylpropanoic acid

> <PUBCHEM_IUPAC_NAME>
(2S)-2-[[(2R,3R)-2-[[(2R)-5-amino-2-[[2-[[(2R)-1-[(2S)-2-[[(2S)-1-[(2S)-5-amino-2-[[(2R)-2-amino-3-sulfanylpropanoyl]amino]-5-oxopentanoyl]pyrrolidine-2-carbonyl]amino]-3-(1H-imidazol-5-yl)propanoyl]pyrrolidine-2-carbonyl]amino]acetyl]amino]-5-oxopentanoyl]amino]-3-hydroxybutanoyl]amino]-3-sulfanylpropanoic acid

> <PUBCHEM_IUPAC_SYSTEMATIC_NAME>
(2S)-2-[[(2R,3R)-2-[[(2R)-5-azanyl-2-[2-[[(2R)-1-[(2S)-2-[[(2S)-1-[(2S)-5-azanyl-2-[[(2R)-2-azanyl-3-sulfanyl-propanoyl]amino]-5-oxidanylidene-pentanoyl]pyrrolidin-2-yl]carbonylamino]-3-(1H-imidazol-5-yl)propanoyl]pyrrolidin-2-yl]carbonylamino]ethanoylamino]-5-oxidanylidene-pentanoyl]amino]-3-oxidanyl-butanoyl]amino]-3-sulfanyl-propanoic acid

> <PUBCHEM_IUPAC_TRADITIONAL_NAME>
(2S)-2-[[(2R,3R)-2-[[(2R)-5-amino-2-[[2-[[(2R)-1-[(2S)-2-[[(2S)-1-[(2S)-5-amino-2-[[(2R)-2-amino-3-mercapto-propanoyl]amino]-5-keto-pentanoyl]prolyl]amino]-3-(1H-imidazol-5-yl)propanoyl]prolyl]amino]acetyl]amino]-5-keto-pentanoyl]amino]-3-hydroxy-butanoyl]amino]-3-mercapto-propionic acid

> <PUBCHEM_IUPAC_INCHI>
InChI=1S/C38H59N13O13S2/c1-18(52)30(35(60)48-24(16-66)38(63)64)49-32(57)21(6-8-27(40)53)45-29(55)14-43-33(58)25-4-2-10-50(25)37(62)23(12-19-13-42-17-44-19)47-34(59)26-5-3-11-51(26)36(61)22(7-9-28(41)54)46-31(56)20(39)15-65/h13,17-18,20-26,30,52,65-66H,2-12,14-16,39H2,1H3,(H2,40,53)(H2,41,54)(H,42,44)(H,43,58)(H,45,55)(H,46,56)(H,47,59)(H,48,60)(H,49,57)(H,63,64)/t18-,20+,21-,22+,23+,24-,25-,26+,30-/m1/s1

> <PUBCHEM_IUPAC_INCHIKEY>
NPDCPCSUDZVMAN-SOAPZXLMSA-N

> <PUBCHEM_XLOGP3_AA>
-8.2

> <PUBCHEM_EXACT_MASS>
969.37967133

> <PUBCHEM_MOLECULAR_FORMULA>
C38H59N13O13S2

> <PUBCHEM_MOLECULAR_WEIGHT>
970.1

> <PUBCHEM_OPENEYE_CAN_SMILES>
CC(C(C(=O)NC(CS)C(=O)O)NC(=O)C(CCC(=O)N)NC(=O)CNC(=O)C1CCCN1C(=O)C(CC2=CN=CN2)NC(=O)C3CCCN3C(=O)C(CCC(=O)N)NC(=O)C(CS)N)O

> <PUBCHEM_OPENEYE_ISO_SMILES>
C[C@H]([C@H](C(=O)N[C@H](CS)C(=O)O)NC(=O)[C@@H](CCC(=O)N)NC(=O)CNC(=O)[C@H]1CCCN1C(=O)[C@H](CC2=CN=CN2)NC(=O)[C@@H]3CCCN3C(=O)[C@H](CCC(=O)N)NC(=O)[C@H](CS)N)O

> <PUBCHEM_CACTVS_TPSA>
416

> <PUBCHEM_MONOISOTOPIC_WEIGHT>
969.37967133

> <PUBCHEM_TOTAL_CHARGE>
0

> <PUBCHEM_HEAVY_ATOM_COUNT>
66

> <PUBCHEM_ATOM_DEF_STEREO_COUNT>
9

> <PUBCHEM_ATOM_UDEF_STEREO_COUNT>
0

> <PUBCHEM_BOND_DEF_STEREO_COUNT>
0

> <PUBCHEM_BOND_UDEF_STEREO_COUNT>
0

> <PUBCHEM_ISOTOPIC_ATOM_COUNT>
0

> <PUBCHEM_COMPONENT_COUNT>
1

> <PUBCHEM_CACTVS_TAUTO_COUNT>
-1

> <PUBCHEM_COORDINATE_TYPE>
1
5
255

> <PUBCHEM_BONDANNOTATIONS>
60  11  5
37  18  6
41  19  5
21  45  8
21  53  8
22  49  8
22  53  8
54  23  5
50  24  6
59  26  6
64  27  5
29  38  5
31  43  6
45  49  8

$$$$
