3531736
  -OEChem-02162203532D

 42 44  0     1  0  0  0  0  0999 V2000
    2.0000    1.4756    0.0000 Cl  0  0  0  0  0  0  0  0  0  0  0  0
    9.3962    1.6835    0.0000 Cl  0  0  0  0  0  0  0  0  0  0  0  0
    5.5301   -0.5485    0.0000 O   0  0  0  0  0  0  0  0  0  0  0  0
    7.3962   -1.7806    0.0000 O   0  0  0  0  0  0  0  0  0  0  0  0
    2.0000   -0.5727    0.0000 O   0  0  0  0  0  0  0  0  0  0  0  0
   10.3962   -0.0485    0.0000 O   0  0  0  0  0  0  0  0  0  0  0  0
    5.5301    1.4515    0.0000 C   0  0  0  0  0  0  0  0  0  0  0  0
    6.3961    0.9515    0.0000 C   0  0  0  0  0  0  0  0  0  0  0  0
    6.3961   -0.0485    0.0000 C   0  0  3  0  0  0  0  0  0  0  0  0
    4.6641    0.9515    0.0000 C   0  0  0  0  0  0  0  0  0  0  0  0
    6.0301    2.3175    0.0000 C   0  0  0  0  0  0  0  0  0  0  0  0
    5.0301    2.3175    0.0000 C   0  0  0  0  0  0  0  0  0  0  0  0
    4.6641   -0.0485    0.0000 C   0  0  0  0  0  0  0  0  0  0  0  0
    7.3962   -0.0485    0.0000 C   0  0  0  0  0  0  0  0  0  0  0  0
    6.8962   -0.9145    0.0000 C   0  0  0  0  0  0  0  0  0  0  0  0
    3.7702    1.4861    0.0000 C   0  0  0  0  0  0  0  0  0  0  0  0
    3.7702   -0.5832    0.0000 C   0  0  0  0  0  0  0  0  0  0  0  0
    7.8962   -0.9145    0.0000 C   0  0  0  0  0  0  0  0  0  0  0  0
    7.8962    0.8175    0.0000 C   0  0  0  0  0  0  0  0  0  0  0  0
    2.8641    0.9723    0.0000 C   0  0  0  0  0  0  0  0  0  0  0  0
    2.8641   -0.0693    0.0000 C   0  0  0  0  0  0  0  0  0  0  0  0
    8.8962   -0.9145    0.0000 C   0  0  0  0  0  0  0  0  0  0  0  0
    8.8962    0.8175    0.0000 C   0  0  0  0  0  0  0  0  0  0  0  0
    9.3962   -0.0485    0.0000 C   0  0  0  0  0  0  0  0  0  0  0  0
    7.0067    0.8438    0.0000 H   0  0  0  0  0  0  0  0  0  0  0  0
    6.6082    1.5341    0.0000 H   0  0  0  0  0  0  0  0  0  0  0  0
    6.5671    2.0075    0.0000 H   0  0  0  0  0  0  0  0  0  0  0  0
    6.3401    2.8544    0.0000 H   0  0  0  0  0  0  0  0  0  0  0  0
    5.4932    2.6275    0.0000 H   0  0  0  0  0  0  0  0  0  0  0  0
    5.5671    2.6275    0.0000 H   0  0  0  0  0  0  0  0  0  0  0  0
    4.7201    2.8544    0.0000 H   0  0  0  0  0  0  0  0  0  0  0  0
    4.4932    2.0075    0.0000 H   0  0  0  0  0  0  0  0  0  0  0  0
    6.3592   -1.2245    0.0000 H   0  0  0  0  0  0  0  0  0  0  0  0
    7.2062   -1.4515    0.0000 H   0  0  0  0  0  0  0  0  0  0  0  0
    7.4331   -0.6045    0.0000 H   0  0  0  0  0  0  0  0  0  0  0  0
    3.7773    2.1061    0.0000 H   0  0  0  0  0  0  0  0  0  0  0  0
    3.7773   -1.2031    0.0000 H   0  0  0  0  0  0  0  0  0  0  0  0
    7.5862    1.3544    0.0000 H   0  0  0  0  0  0  0  0  0  0  0  0
    9.2061   -1.4515    0.0000 H   0  0  0  0  0  0  0  0  0  0  0  0
    7.7062   -2.3175    0.0000 H   0  0  0  0  0  0  0  0  0  0  0  0
    2.0024   -1.1927    0.0000 H   0  0  0  0  0  0  0  0  0  0  0  0
   10.7062   -0.5855    0.0000 H   0  0  0  0  0  0  0  0  0  0  0  0
  1 20  1  0  0  0  0
  2 23  1  0  0  0  0
  3  9  1  0  0  0  0
  3 13  1  0  0  0  0
  4 18  1  0  0  0  0
  4 40  1  0  0  0  0
  5 21  1  0  0  0  0
  5 41  1  0  0  0  0
  6 24  1  0  0  0  0
  6 42  1  0  0  0  0
  7  8  1  0  0  0  0
  7 10  1  0  0  0  0
  7 11  1  0  0  0  0
  7 12  1  0  0  0  0
  8  9  1  0  0  0  0
  8 25  1  0  0  0  0
  8 26  1  0  0  0  0
  9 14  1  0  0  0  0
  9 15  1  0  0  0  0
 10 13  1  0  0  0  0
 10 16  2  0  0  0  0
 11 27  1  0  0  0  0
 11 28  1  0  0  0  0
 11 29  1  0  0  0  0
 12 30  1  0  0  0  0
 12 31  1  0  0  0  0
 12 32  1  0  0  0  0
 13 17  2  0  0  0  0
 14 18  1  0  0  0  0
 14 19  2  0  0  0  0
 15 33  1  0  0  0  0
 15 34  1  0  0  0  0
 15 35  1  0  0  0  0
 16 20  1  0  0  0  0
 16 36  1  0  0  0  0
 17 21  1  0  0  0  0
 17 37  1  0  0  0  0
 18 22  2  0  0  0  0
 19 23  1  0  0  0  0
 19 38  1  0  0  0  0
 20 21  2  0  0  0  0
 22 24  1  0  0  0  0
 22 39  1  0  0  0  0
 23 24  2  0  0  0  0
M  END
> <PUBCHEM_COMPOUND_CID>
3531736

> <PUBCHEM_COMPOUND_CANONICALIZED>
1

> <PUBCHEM_CACTVS_COMPLEXITY>
474

> <PUBCHEM_CACTVS_HBOND_ACCEPTOR>
4

> <PUBCHEM_CACTVS_HBOND_DONOR>
3

> <PUBCHEM_CACTVS_ROTATABLE_BOND>
1

> <PUBCHEM_CACTVS_SUBSKEYS>
AAADceB4OAAGAAAAAAAAAAAAAAAAAAAAAAA0YIAAAAAAAACRQAAAGgIACAAADkaAmCAyBoAABgCAAiBCAAACCAAgJUAAiAAGC4gMJyKHMhqCeCClwBUIuAeA4PwPoCAAKAAICABAQABQABAQAAAAAAAAAA==

> <PUBCHEM_IUPAC_OPENEYE_NAME>
4-chloro-6-(6-chloro-7-hydroxy-2,4,4-trimethyl-chroman-2-yl)benzene-1,3-diol

> <PUBCHEM_IUPAC_CAS_NAME>
4-chloro-6-(6-chloro-7-hydroxy-2,4,4-trimethyl-3,4-dihydro-2H-1-benzopyran-2-yl)benzene-1,3-diol

> <PUBCHEM_IUPAC_NAME_MARKUP>
4-chloro-6-(6-chloro-7-hydroxy-2,4,4-trimethyl-3<I>H</I>-chromen-2-yl)benzene-1,3-diol

> <PUBCHEM_IUPAC_NAME>
4-chloro-6-(6-chloro-7-hydroxy-2,4,4-trimethyl-3H-chromen-2-yl)benzene-1,3-diol

> <PUBCHEM_IUPAC_SYSTEMATIC_NAME>
4-chloranyl-6-(6-chloranyl-2,4,4-trimethyl-7-oxidanyl-3H-chromen-2-yl)benzene-1,3-diol

> <PUBCHEM_IUPAC_TRADITIONAL_NAME>
4-chloro-6-(6-chloro-7-hydroxy-2,4,4-trimethyl-chroman-2-yl)resorcinol

> <PUBCHEM_IUPAC_INCHI>
InChI=1S/C18H18Cl2O4/c1-17(2)8-18(3,9-4-11(19)14(22)6-13(9)21)24-16-7-15(23)12(20)5-10(16)17/h4-7,21-23H,8H2,1-3H3

> <PUBCHEM_IUPAC_INCHIKEY>
VSHLILKLIDPGCI-UHFFFAOYSA-N

> <PUBCHEM_XLOGP3_AA>
5.1

> <PUBCHEM_EXACT_MASS>
368.0582144

> <PUBCHEM_MOLECULAR_FORMULA>
C18H18Cl2O4

> <PUBCHEM_MOLECULAR_WEIGHT>
369.2

> <PUBCHEM_OPENEYE_CAN_SMILES>
CC1(CC(OC2=CC(=C(C=C21)Cl)O)(C)C3=CC(=C(C=C3O)O)Cl)C

> <PUBCHEM_OPENEYE_ISO_SMILES>
CC1(CC(OC2=CC(=C(C=C21)Cl)O)(C)C3=CC(=C(C=C3O)O)Cl)C

> <PUBCHEM_CACTVS_TPSA>
69.9

> <PUBCHEM_MONOISOTOPIC_WEIGHT>
368.0582144

> <PUBCHEM_TOTAL_CHARGE>
0

> <PUBCHEM_HEAVY_ATOM_COUNT>
24

> <PUBCHEM_ATOM_DEF_STEREO_COUNT>
0

> <PUBCHEM_ATOM_UDEF_STEREO_COUNT>
1

> <PUBCHEM_BOND_DEF_STEREO_COUNT>
0

> <PUBCHEM_BOND_UDEF_STEREO_COUNT>
0

> <PUBCHEM_ISOTOPIC_ATOM_COUNT>
0

> <PUBCHEM_COMPONENT_COUNT>
1

> <PUBCHEM_CACTVS_TAUTO_COUNT>
-1

> <PUBCHEM_COORDINATE_TYPE>
1
5
255

> <PUBCHEM_BONDANNOTATIONS>
10  13  8
10  16  8
13  17  8
14  18  8
14  19  8
16  20  8
17  21  8
18  22  8
19  23  8
20  21  8
22  24  8
23  24  8
9  15  3

$$$$
