676297
  -OEChem-01092204002D

 32 34  0     0  0  0  0  0  0999 V2000
    6.0682    0.0000    0.0000 O   0  0  0  0  0  0  0  0  0  0  0  0
    8.6663   -2.5000    0.0000 O   0  0  0  0  0  0  0  0  0  0  0  0
    6.0682    3.0000    0.0000 O   0  0  0  0  0  0  0  0  0  0  0  0
    2.5381    2.0242    0.0000 O   0  0  0  0  0  0  0  0  0  0  0  0
    5.2022    1.5000    0.0000 C   0  0  0  0  0  0  0  0  0  0  0  0
    6.9343    0.5000    0.0000 C   0  0  0  0  0  0  0  0  0  0  0  0
    5.2022    0.5000    0.0000 C   0  0  0  0  0  0  0  0  0  0  0  0
    7.8003    0.0000    0.0000 C   0  0  0  0  0  0  0  0  0  0  0  0
    6.0682    2.0000    0.0000 C   0  0  0  0  0  0  0  0  0  0  0  0
    6.9343    1.5000    0.0000 C   0  0  0  0  0  0  0  0  0  0  0  0
    4.3083    2.0347    0.0000 C   0  0  0  0  0  0  0  0  0  0  0  0
    4.3083   -0.0347    0.0000 C   0  0  0  0  0  0  0  0  0  0  0  0
    7.8003   -1.0000    0.0000 C   0  0  0  0  0  0  0  0  0  0  0  0
    8.6663    0.5000    0.0000 C   0  0  0  0  0  0  0  0  0  0  0  0
    3.4022    1.5208    0.0000 C   0  0  0  0  0  0  0  0  0  0  0  0
    8.6663   -1.5000    0.0000 C   0  0  0  0  0  0  0  0  0  0  0  0
    3.4022    0.4792    0.0000 C   0  0  0  0  0  0  0  0  0  0  0  0
    9.5323   -0.0000    0.0000 C   0  0  0  0  0  0  0  0  0  0  0  0
    9.5323   -1.0000    0.0000 C   0  0  0  0  0  0  0  0  0  0  0  0
    9.5323   -3.0000    0.0000 C   0  0  0  0  0  0  0  0  0  0  0  0
    7.4712    1.8100    0.0000 H   0  0  0  0  0  0  0  0  0  0  0  0
    4.3154    2.6546    0.0000 H   0  0  0  0  0  0  0  0  0  0  0  0
    4.3154   -0.6546    0.0000 H   0  0  0  0  0  0  0  0  0  0  0  0
    7.2634   -1.3100    0.0000 H   0  0  0  0  0  0  0  0  0  0  0  0
    8.6663    1.1200    0.0000 H   0  0  0  0  0  0  0  0  0  0  0  0
    2.8665    0.1671    0.0000 H   0  0  0  0  0  0  0  0  0  0  0  0
   10.0693    0.3100    0.0000 H   0  0  0  0  0  0  0  0  0  0  0  0
   10.0693   -1.3100    0.0000 H   0  0  0  0  0  0  0  0  0  0  0  0
    2.0000    1.7162    0.0000 H   0  0  0  0  0  0  0  0  0  0  0  0
    9.2224   -3.5369    0.0000 H   0  0  0  0  0  0  0  0  0  0  0  0
   10.0693   -3.3100    0.0000 H   0  0  0  0  0  0  0  0  0  0  0  0
    9.8424   -2.4631    0.0000 H   0  0  0  0  0  0  0  0  0  0  0  0
  1  6  1  0  0  0  0
  1  7  1  0  0  0  0
  2 16  1  0  0  0  0
  2 20  1  0  0  0  0
  3  9  2  0  0  0  0
  4 15  1  0  0  0  0
  4 29  1  0  0  0  0
  5  7  2  0  0  0  0
  5  9  1  0  0  0  0
  5 11  1  0  0  0  0
  6  8  1  0  0  0  0
  6 10  2  0  0  0  0
  7 12  1  0  0  0  0
  8 13  2  0  0  0  0
  8 14  1  0  0  0  0
  9 10  1  0  0  0  0
 10 21  1  0  0  0  0
 11 15  2  0  0  0  0
 11 22  1  0  0  0  0
 12 17  2  0  0  0  0
 12 23  1  0  0  0  0
 13 16  1  0  0  0  0
 13 24  1  0  0  0  0
 14 18  2  0  0  0  0
 14 25  1  0  0  0  0
 15 17  1  0  0  0  0
 16 19  2  0  0  0  0
 17 26  1  0  0  0  0
 18 19  1  0  0  0  0
 18 27  1  0  0  0  0
 19 28  1  0  0  0  0
 20 30  1  0  0  0  0
 20 31  1  0  0  0  0
 20 32  1  0  0  0  0
M  END
> <PUBCHEM_COMPOUND_CID>
676297

> <PUBCHEM_COMPOUND_CANONICALIZED>
1

> <PUBCHEM_CACTVS_COMPLEXITY>
403

> <PUBCHEM_CACTVS_HBOND_ACCEPTOR>
4

> <PUBCHEM_CACTVS_HBOND_DONOR>
1

> <PUBCHEM_CACTVS_ROTATABLE_BOND>
2

> <PUBCHEM_CACTVS_SUBSKEYS>
AAADccB4OAAAAAAAAAAAAAAAAAAAAAAAAAAwYIAAAAAAAACBQAAAGgAACAAADASAmAIyBoAABgCIAqBSAAACCAAkIAAIiAEGCMgMJjaGNRqCeWCk4BEIuYfKyLCOAQABAAAIAAACAAIAABAAAAAAAAAAAA==

> <PUBCHEM_IUPAC_OPENEYE_NAME>
6-hydroxy-2-(3-methoxyphenyl)chromen-4-one

> <PUBCHEM_IUPAC_CAS_NAME>
6-hydroxy-2-(3-methoxyphenyl)-1-benzopyran-4-one

> <PUBCHEM_IUPAC_NAME_MARKUP>
6-hydroxy-2-(3-methoxyphenyl)chromen-4-one

> <PUBCHEM_IUPAC_NAME>
6-hydroxy-2-(3-methoxyphenyl)chromen-4-one

> <PUBCHEM_IUPAC_SYSTEMATIC_NAME>
2-(3-methoxyphenyl)-6-oxidanyl-chromen-4-one

> <PUBCHEM_IUPAC_TRADITIONAL_NAME>
6-hydroxy-2-(3-methoxyphenyl)chromone

> <PUBCHEM_IUPAC_INCHI>
InChI=1S/C16H12O4/c1-19-12-4-2-3-10(7-12)16-9-14(18)13-8-11(17)5-6-15(13)20-16/h2-9,17H,1H3

> <PUBCHEM_IUPAC_INCHIKEY>
JTOPPXPJVKFGSW-UHFFFAOYSA-N

> <PUBCHEM_XLOGP3>
3.6

> <PUBCHEM_EXACT_MASS>
268.07355886

> <PUBCHEM_MOLECULAR_FORMULA>
C16H12O4

> <PUBCHEM_MOLECULAR_WEIGHT>
268.26

> <PUBCHEM_OPENEYE_CAN_SMILES>
COC1=CC=CC(=C1)C2=CC(=O)C3=C(O2)C=CC(=C3)O

> <PUBCHEM_OPENEYE_ISO_SMILES>
COC1=CC=CC(=C1)C2=CC(=O)C3=C(O2)C=CC(=C3)O

> <PUBCHEM_CACTVS_TPSA>
55.8

> <PUBCHEM_MONOISOTOPIC_WEIGHT>
268.07355886

> <PUBCHEM_TOTAL_CHARGE>
0

> <PUBCHEM_HEAVY_ATOM_COUNT>
20

> <PUBCHEM_ATOM_DEF_STEREO_COUNT>
0

> <PUBCHEM_ATOM_UDEF_STEREO_COUNT>
0

> <PUBCHEM_BOND_DEF_STEREO_COUNT>
0

> <PUBCHEM_BOND_UDEF_STEREO_COUNT>
0

> <PUBCHEM_ISOTOPIC_ATOM_COUNT>
0

> <PUBCHEM_COMPONENT_COUNT>
1

> <PUBCHEM_CACTVS_TAUTO_COUNT>
3

> <PUBCHEM_COORDINATE_TYPE>
1
5
255

> <PUBCHEM_BONDANNOTATIONS>
1  6  8
1  7  8
11  15  8
12  17  8
13  16  8
14  18  8
15  17  8
16  19  8
18  19  8
5  11  8
5  7  8
5  9  8
6  10  8
7  12  8
8  13  8
8  14  8
9  10  8

$$$$
