101115386
  -OEChem-01292204472D

211222  0     1  0  0  0  0  0999 V2000
   19.8574    0.0950    0.0000 O   0  0  0  0  0  0  0  0  0  0  0  0
   18.1254    2.0950    0.0000 O   0  0  0  0  0  0  0  0  0  0  0  0
   18.9914   -1.4050    0.0000 O   0  0  0  0  0  0  0  0  0  0  0  0
   19.8574    2.0950    0.0000 O   0  0  0  0  0  0  0  0  0  0  0  0
   18.1254   -0.9050    0.0000 O   0  0  0  0  0  0  0  0  0  0  0  0
   16.3933    0.0950    0.0000 O   0  0  0  0  0  0  0  0  0  0  0  0
   21.5895   -0.9050    0.0000 O   0  0  0  0  0  0  0  0  0  0  0  0
   21.5895   -2.9050    0.0000 O   0  0  0  0  0  0  0  0  0  0  0  0
   19.8574   -3.9050    0.0000 O   0  0  0  0  0  0  0  0  0  0  0  0
   15.5273    1.5950    0.0000 O   0  0  0  0  0  0  0  0  0  0  0  0
   18.1254   -3.9050    0.0000 O   0  0  0  0  0  0  0  0  0  0  0  0
   15.4893    4.5718    0.0000 O   0  0  0  0  0  0  0  0  0  0  0  0
   20.7235    4.5950    0.0000 O   0  3  0  0  0  0  0  0  0  0  0  0
   17.2212    4.5919    0.0000 O   0  0  0  0  0  0  0  0  0  0  0  0
    8.5991    1.5950    0.0000 O   0  0  0  0  0  0  0  0  0  0  0  0
   17.2594  -10.4050    0.0000 O   0  0  0  0  0  0  0  0  0  0  0  0
   15.4546    7.5716    0.0000 O   0  0  0  0  0  0  0  0  0  0  0  0
   17.1981    6.5917    0.0000 O   0  0  0  0  0  0  0  0  0  0  0  0
   13.7342    6.5517    0.0000 O   0  0  0  0  0  0  0  0  0  0  0  0
    5.1350   10.5950    0.0000 O   0  0  0  0  0  0  0  0  0  0  0  0
    9.4651    0.0950    0.0000 O   0  0  0  0  0  0  0  0  0  0  0  0
    6.0010    2.0950    0.0000 O   0  0  0  0  0  0  0  0  0  0  0  0
    6.0010    0.0950    0.0000 O   0  0  0  0  0  0  0  0  0  0  0  0
    7.7331   -0.9050    0.0000 O   0  0  0  0  0  0  0  0  0  0  0  0
   14.6613    3.0950    0.0000 O   0  0  0  0  0  0  0  0  0  0  0  0
   18.1254   -8.9050    0.0000 O   0  0  0  0  0  0  0  0  0  0  0  0
   19.8574  -11.9050    0.0000 O   0  0  0  0  0  0  0  0  0  0  0  0
   18.1254  -12.9050    0.0000 O   0  0  0  0  0  0  0  0  0  0  0  0
   16.3933   -3.9050    0.0000 O   0  0  0  0  0  0  0  0  0  0  0  0
    7.7331   11.0950    0.0000 O   0  0  0  0  0  0  0  0  0  0  0  0
    7.7331    9.0950    0.0000 O   0  0  0  0  0  0  0  0  0  0  0  0
   19.8574   -9.9050    0.0000 O   0  0  0  0  0  0  0  0  0  0  0  0
    4.2690    9.0950    0.0000 O   0  0  0  0  0  0  0  0  0  0  0  0
   12.8856    5.0418    0.0000 O   0  0  0  0  0  0  0  0  0  0  0  0
    6.0010    8.0950    0.0000 O   0  0  0  0  0  0  0  0  0  0  0  0
    6.8671    3.5950    0.0000 O   0  0  0  0  0  0  0  0  0  0  0  0
   18.9793    7.6642    0.0000 O   0  0  0  0  0  0  0  0  0  0  0  0
   16.3933  -12.9050    0.0000 O   0  0  0  0  0  0  0  0  0  0  0  0
    5.1350   12.5950    0.0000 O   0  0  0  0  0  0  0  0  0  0  0  0
   24.1876    3.5950    0.0000 O   0  0  0  0  0  0  0  0  0  0  0  0
   24.1876    1.5950    0.0000 O   0  0  0  0  0  0  0  0  0  0  0  0
   16.3933   -9.9050    0.0000 O   0  0  0  0  0  0  0  0  0  0  0  0
    2.5369    8.0950    0.0000 O   0  0  0  0  0  0  0  0  0  0  0  0
    7.7331    5.0950    0.0000 O   0  0  0  0  0  0  0  0  0  0  0  0
   18.9914    0.5950    0.0000 C   0  0  2  0  0  0  0  0  0  0  0  0
   18.1254    0.0950    0.0000 C   0  0  2  0  0  0  0  0  0  0  0  0
   17.2594    0.5950    0.0000 C   0  0  1  0  0  0  0  0  0  0  0  0
   19.8574   -0.9050    0.0000 C   0  0  1  0  0  0  0  0  0  0  0  0
   20.7235   -1.4050    0.0000 C   0  0  2  0  0  0  0  0  0  0  0  0
   18.9914    1.5950    0.0000 C   0  0  1  0  0  0  0  0  0  0  0  0
   17.2594    1.5950    0.0000 C   0  0  1  0  0  0  0  0  0  0  0  0
   20.7235   -2.4050    0.0000 C   0  0  1  0  0  0  0  0  0  0  0  0
   19.8574   -2.9050    0.0000 C   0  0  2  0  0  0  0  0  0  0  0  0
   18.9914   -2.4050    0.0000 C   0  0  2  0  0  0  0  0  0  0  0  0
   16.3933    2.0950    0.0000 C   0  0  0  0  0  0  0  0  0  0  0  0
   18.1254   -2.9050    0.0000 C   0  0  0  0  0  0  0  0  0  0  0  0
   19.8574    3.0950    0.0000 C   0  0  0  0  0  0  0  0  0  0  0  0
   20.7235    3.5950    0.0000 C   0  0  0  0  0  0  0  0  0  0  0  0
   18.9914    3.5950    0.0000 C   0  0  0  0  0  0  0  0  0  0  0  0
   15.4662    6.5717    0.0000 C   0  0  2  0  0  0  0  0  0  0  0  0
   16.3379    6.0818    0.0000 C   0  0  2  0  0  0  0  0  0  0  0  0
   14.6060    6.0617    0.0000 C   0  0  1  0  0  0  0  0  0  0  0  0
   16.3495    5.0818    0.0000 C   0  0  1  0  0  0  0  0  0  0  0  0
   14.6175    5.0618    0.0000 C   0  0  1  0  0  0  0  0  0  0  0  0
   18.9914    4.5950    0.0000 C   0  0  0  0  0  0  0  0  0  0  0  0
   14.6613    2.0950    0.0000 C   0  0  0  0  0  0  0  0  0  0  0  0
   17.2594   -4.4050    0.0000 C   0  0  0  0  0  0  0  0  0  0  0  0
   19.8574    5.0950    0.0000 C   0  0  0  0  0  0  0  0  0  0  0  0
    6.8671    1.5950    0.0000 C   0  0  1  0  0  0  0  0  0  0  0  0
    6.8671    0.5950    0.0000 C   0  0  1  0  0  0  0  0  0  0  0  0
   18.0814    5.1018    0.0000 C   0  0  0  0  0  0  0  0  0  0  0  0
    7.7331    2.0950    0.0000 C   0  0  1  0  0  0  0  0  0  0  0  0
    7.7331    0.0950    0.0000 C   0  0  2  0  0  0  0  0  0  0  0  0
   21.5895    3.0950    0.0000 C   0  0  0  0  0  0  0  0  0  0  0  0
   18.9914  -11.4050    0.0000 C   0  0  1  0  0  0  0  0  0  0  0  0
   18.1254  -11.9050    0.0000 C   0  0  1  0  0  0  0  0  0  0  0  0
    6.8671   10.5950    0.0000 C   0  0  2  0  0  0  0  0  0  0  0  0
    6.8671    9.5950    0.0000 C   0  0  2  0  0  0  0  0  0  0  0  0
    8.5991    0.5950    0.0000 C   0  0  1  0  0  0  0  0  0  0  0  0
   18.9914  -10.4050    0.0000 C   0  0  2  0  0  0  0  0  0  0  0  0
   17.2594  -11.4050    0.0000 C   0  0  1  0  0  0  0  0  0  0  0  0
   13.7574    4.5518    0.0000 C   0  0  0  0  0  0  0  0  0  0  0  0
    6.0010   11.0950    0.0000 C   0  0  2  0  0  0  0  0  0  0  0  0
    6.0010    9.0950    0.0000 C   0  0  1  0  0  0  0  0  0  0  0  0
   18.1254   -9.9050    0.0000 C   0  0  1  0  0  0  0  0  0  0  0  0
    5.1350    9.5950    0.0000 C   0  0  2  0  0  0  0  0  0  0  0  0
   19.8735    6.1365    0.0000 C   0  0  0  0  0  0  0  0  0  0  0  0
   18.0734    6.1434    0.0000 C   0  0  0  0  0  0  0  0  0  0  0  0
    7.7331    3.0950    0.0000 C   0  0  0  0  0  0  0  0  0  0  0  0
   13.7953    1.5950    0.0000 C   0  0  0  0  0  0  0  0  0  0  0  0
   17.2594   -5.4050    0.0000 C   0  0  0  0  0  0  0  0  0  0  0  0
   18.9755    6.6643    0.0000 C   0  0  0  0  0  0  0  0  0  0  0  0
   16.3933  -11.9050    0.0000 C   0  0  0  0  0  0  0  0  0  0  0  0
   22.4555    3.5950    0.0000 C   0  0  0  0  0  0  0  0  0  0  0  0
   21.5895    2.0950    0.0000 C   0  0  0  0  0  0  0  0  0  0  0  0
    6.0010   12.0950    0.0000 C   0  0  0  0  0  0  0  0  0  0  0  0
   12.9292    2.0950    0.0000 C   0  0  0  0  0  0  0  0  0  0  0  0
   16.3933   -5.9050    0.0000 C   0  0  0  0  0  0  0  0  0  0  0  0
   23.3215    3.0950    0.0000 C   0  0  0  0  0  0  0  0  0  0  0  0
   22.4555    1.5950    0.0000 C   0  0  0  0  0  0  0  0  0  0  0  0
   10.3312    0.5950    0.0000 C   0  0  0  0  0  0  0  0  0  0  0  0
   17.2594   -8.4050    0.0000 C   0  0  0  0  0  0  0  0  0  0  0  0
   12.0632    1.5950    0.0000 C   0  0  0  0  0  0  0  0  0  0  0  0
   16.3933   -6.9050    0.0000 C   0  0  0  0  0  0  0  0  0  0  0  0
   23.3215    2.0950    0.0000 C   0  0  0  0  0  0  0  0  0  0  0  0
   17.2594   -7.4050    0.0000 C   0  0  0  0  0  0  0  0  0  0  0  0
    4.2690    8.0950    0.0000 C   0  0  0  0  0  0  0  0  0  0  0  0
   11.1972    0.0950    0.0000 C   0  0  0  0  0  0  0  0  0  0  0  0
   10.3312    1.5950    0.0000 C   0  0  0  0  0  0  0  0  0  0  0  0
   12.0632    0.5950    0.0000 C   0  0  0  0  0  0  0  0  0  0  0  0
   11.1972    2.0950    0.0000 C   0  0  0  0  0  0  0  0  0  0  0  0
   16.3933   -8.9050    0.0000 C   0  0  0  0  0  0  0  0  0  0  0  0
   15.5273   -7.4050    0.0000 C   0  0  0  0  0  0  0  0  0  0  0  0
    6.8671    4.5950    0.0000 C   0  0  0  0  0  0  0  0  0  0  0  0
   15.5273   -8.4050    0.0000 C   0  0  0  0  0  0  0  0  0  0  0  0
    5.1350    7.5950    0.0000 C   0  0  0  0  0  0  0  0  0  0  0  0
    3.4030    7.5950    0.0000 C   0  0  0  0  0  0  0  0  0  0  0  0
    5.1350    6.5950    0.0000 C   0  0  0  0  0  0  0  0  0  0  0  0
    6.0010    5.0950    0.0000 C   0  0  0  0  0  0  0  0  0  0  0  0
    3.4030    6.5950    0.0000 C   0  0  0  0  0  0  0  0  0  0  0  0
    6.0010    6.0950    0.0000 C   0  0  0  0  0  0  0  0  0  0  0  0
    4.2690    6.0950    0.0000 C   0  0  0  0  0  0  0  0  0  0  0  0
   18.9914   -0.0250    0.0000 H   0  0  0  0  0  0  0  0  0  0  0  0
   17.5885   -0.2150    0.0000 H   0  0  0  0  0  0  0  0  0  0  0  0
   16.7224    0.9050    0.0000 H   0  0  0  0  0  0  0  0  0  0  0  0
   20.3944   -0.5950    0.0000 H   0  0  0  0  0  0  0  0  0  0  0  0
   21.2604   -1.7150    0.0000 H   0  0  0  0  0  0  0  0  0  0  0  0
   18.9914    2.2150    0.0000 H   0  0  0  0  0  0  0  0  0  0  0  0
   17.2594    2.2150    0.0000 H   0  0  0  0  0  0  0  0  0  0  0  0
   20.7235   -3.0250    0.0000 H   0  0  0  0  0  0  0  0  0  0  0  0
   19.3205   -3.2150    0.0000 H   0  0  0  0  0  0  0  0  0  0  0  0
   18.4545   -2.0950    0.0000 H   0  0  0  0  0  0  0  0  0  0  0  0
   16.7919    2.5700    0.0000 H   0  0  0  0  0  0  0  0  0  0  0  0
   15.9948    2.5700    0.0000 H   0  0  0  0  0  0  0  0  0  0  0  0
   17.9133   -2.3224    0.0000 H   0  0  0  0  0  0  0  0  0  0  0  0
   17.5148   -3.0127    0.0000 H   0  0  0  0  0  0  0  0  0  0  0  0
   17.5885   -1.2150    0.0000 H   0  0  0  0  0  0  0  0  0  0  0  0
   16.3933   -0.5250    0.0000 H   0  0  0  0  0  0  0  0  0  0  0  0
   22.1264   -1.2150    0.0000 H   0  0  0  0  0  0  0  0  0  0  0  0
   22.1264   -2.5950    0.0000 H   0  0  0  0  0  0  0  0  0  0  0  0
   20.3944   -4.2150    0.0000 H   0  0  0  0  0  0  0  0  0  0  0  0
   18.4545    3.2850    0.0000 H   0  0  0  0  0  0  0  0  0  0  0  0
   14.9257    6.8755    0.0000 H   0  0  0  0  0  0  0  0  0  0  0  0
   16.8784    5.7780    0.0000 H   0  0  0  0  0  0  0  0  0  0  0  0
   14.0727    5.7455    0.0000 H   0  0  0  0  0  0  0  0  0  0  0  0
   16.3567    4.4619    0.0000 H   0  0  0  0  0  0  0  0  0  0  0  0
   14.6247    4.4418    0.0000 H   0  0  0  0  0  0  0  0  0  0  0  0
    6.8671    2.2150    0.0000 H   0  0  0  0  0  0  0  0  0  0  0  0
    6.3301    0.9050    0.0000 H   0  0  0  0  0  0  0  0  0  0  0  0
    8.2700    2.4050    0.0000 H   0  0  0  0  0  0  0  0  0  0  0  0
    7.1962   -0.2150    0.0000 H   0  0  0  0  0  0  0  0  0  0  0  0
   18.9914  -12.0250    0.0000 H   0  0  0  0  0  0  0  0  0  0  0  0
   18.6623  -12.2150    0.0000 H   0  0  0  0  0  0  0  0  0  0  0  0
    7.4040   10.2850    0.0000 H   0  0  0  0  0  0  0  0  0  0  0  0
    7.4040    9.9050    0.0000 H   0  0  0  0  0  0  0  0  0  0  0  0
    8.5991   -0.0250    0.0000 H   0  0  0  0  0  0  0  0  0  0  0  0
   19.5284  -10.7150    0.0000 H   0  0  0  0  0  0  0  0  0  0  0  0
   16.7224  -11.0950    0.0000 H   0  0  0  0  0  0  0  0  0  0  0  0
   13.3644    4.0723    0.0000 H   0  0  0  0  0  0  0  0  0  0  0  0
   14.1614    4.0815    0.0000 H   0  0  0  0  0  0  0  0  0  0  0  0
    5.4641   11.4050    0.0000 H   0  0  0  0  0  0  0  0  0  0  0  0
    6.5380    8.7850    0.0000 H   0  0  0  0  0  0  0  0  0  0  0  0
   18.6623   -9.5950    0.0000 H   0  0  0  0  0  0  0  0  0  0  0  0
    5.1350    8.9750    0.0000 H   0  0  0  0  0  0  0  0  0  0  0  0
   20.4140    6.4403    0.0000 H   0  0  0  0  0  0  0  0  0  0  0  0
   17.5353    6.4514    0.0000 H   0  0  0  0  0  0  0  0  0  0  0  0
    8.3437    2.9873    0.0000 H   0  0  0  0  0  0  0  0  0  0  0  0
    7.9451    3.6776    0.0000 H   0  0  0  0  0  0  0  0  0  0  0  0
   13.7953    0.9750    0.0000 H   0  0  0  0  0  0  0  0  0  0  0  0
   14.9141    7.8754    0.0000 H   0  0  0  0  0  0  0  0  0  0  0  0
   17.1909    7.2117    0.0000 H   0  0  0  0  0  0  0  0  0  0  0  0
   13.7271    7.1716    0.0000 H   0  0  0  0  0  0  0  0  0  0  0  0
   17.7963   -5.7150    0.0000 H   0  0  0  0  0  0  0  0  0  0  0  0
   16.1813  -11.3224    0.0000 H   0  0  0  0  0  0  0  0  0  0  0  0
   15.7828  -12.0127    0.0000 H   0  0  0  0  0  0  0  0  0  0  0  0
    6.6116   11.9873    0.0000 H   0  0  0  0  0  0  0  0  0  0  0  0
    6.2131   12.6776    0.0000 H   0  0  0  0  0  0  0  0  0  0  0  0
   22.4555    4.2150    0.0000 H   0  0  0  0  0  0  0  0  0  0  0  0
   21.0526    1.7850    0.0000 H   0  0  0  0  0  0  0  0  0  0  0  0
    5.4641    1.7850    0.0000 H   0  0  0  0  0  0  0  0  0  0  0  0
    5.4641    0.4050    0.0000 H   0  0  0  0  0  0  0  0  0  0  0  0
    7.1962   -1.2150    0.0000 H   0  0  0  0  0  0  0  0  0  0  0  0
   19.8574  -12.5250    0.0000 H   0  0  0  0  0  0  0  0  0  0  0  0
   18.6623  -13.2150    0.0000 H   0  0  0  0  0  0  0  0  0  0  0  0
   12.9292    2.7150    0.0000 H   0  0  0  0  0  0  0  0  0  0  0  0
    7.7331   11.7150    0.0000 H   0  0  0  0  0  0  0  0  0  0  0  0
    8.2700    9.4050    0.0000 H   0  0  0  0  0  0  0  0  0  0  0  0
   20.3944  -10.2150    0.0000 H   0  0  0  0  0  0  0  0  0  0  0  0
   15.8564   -5.5950    0.0000 H   0  0  0  0  0  0  0  0  0  0  0  0
   12.3523    4.7256    0.0000 H   0  0  0  0  0  0  0  0  0  0  0  0
    6.5380    7.7850    0.0000 H   0  0  0  0  0  0  0  0  0  0  0  0
   22.4555    0.9750    0.0000 H   0  0  0  0  0  0  0  0  0  0  0  0
   17.7963   -7.0950    0.0000 H   0  0  0  0  0  0  0  0  0  0  0  0
   19.5174    7.9722    0.0000 H   0  0  0  0  0  0  0  0  0  0  0  0
   15.8564  -13.2150    0.0000 H   0  0  0  0  0  0  0  0  0  0  0  0
   11.1972   -0.5250    0.0000 H   0  0  0  0  0  0  0  0  0  0  0  0
    9.7942    1.9050    0.0000 H   0  0  0  0  0  0  0  0  0  0  0  0
    5.1350   13.2150    0.0000 H   0  0  0  0  0  0  0  0  0  0  0  0
   12.6002    0.2850    0.0000 H   0  0  0  0  0  0  0  0  0  0  0  0
   11.1972    2.7150    0.0000 H   0  0  0  0  0  0  0  0  0  0  0  0
   14.9904   -7.0950    0.0000 H   0  0  0  0  0  0  0  0  0  0  0  0
   14.9904   -8.7150    0.0000 H   0  0  0  0  0  0  0  0  0  0  0  0
    5.6720    7.9050    0.0000 H   0  0  0  0  0  0  0  0  0  0  0  0
   24.1876    4.2150    0.0000 H   0  0  0  0  0  0  0  0  0  0  0  0
   24.1876    0.9750    0.0000 H   0  0  0  0  0  0  0  0  0  0  0  0
    5.4641    4.7850    0.0000 H   0  0  0  0  0  0  0  0  0  0  0  0
    2.8660    6.2850    0.0000 H   0  0  0  0  0  0  0  0  0  0  0  0
    6.5380    6.4050    0.0000 H   0  0  0  0  0  0  0  0  0  0  0  0
    4.2690    5.4750    0.0000 H   0  0  0  0  0  0  0  0  0  0  0  0
   15.8564  -10.2150    0.0000 H   0  0  0  0  0  0  0  0  0  0  0  0
    2.0000    7.7850    0.0000 H   0  0  0  0  0  0  0  0  0  0  0  0
 45  1  1  6  0  0  0
 48  1  1  6  0  0  0
  2 50  1  0  0  0  0
  2 51  1  0  0  0  0
  3 48  1  0  0  0  0
  3 54  1  0  0  0  0
 50  4  1  1  0  0  0
  4 57  1  0  0  0  0
 46  5  1  1  0  0  0
  5137  1  0  0  0  0
 47  6  1  6  0  0  0
  6138  1  0  0  0  0
 49  7  1  1  0  0  0
  7139  1  0  0  0  0
 52  8  1  6  0  0  0
  8140  1  0  0  0  0
 53  9  1  1  0  0  0
  9141  1  0  0  0  0
 10 55  1  0  0  0  0
 10 66  1  0  0  0  0
 11 56  1  0  0  0  0
 11 67  1  0  0  0  0
 12 63  1  0  0  0  0
 12 64  1  0  0  0  0
 13 58  1  0  0  0  0
 13 68  2  0  0  0  0
 63 14  1  6  0  0  0
 14 71  1  0  0  0  0
 15 72  1  0  0  0  0
 15 79  1  0  0  0  0
 16 81  1  0  0  0  0
 16 85  1  0  0  0  0
 60 17  1  6  0  0  0
 17170  1  0  0  0  0
 61 18  1  1  0  0  0
 18171  1  0  0  0  0
 62 19  1  1  0  0  0
 19172  1  0  0  0  0
 20 83  1  0  0  0  0
 20 86  1  0  0  0  0
 79 21  1  1  0  0  0
 21101  1  0  0  0  0
 69 22  1  6  0  0  0
 22180  1  0  0  0  0
 70 23  1  1  0  0  0
 23181  1  0  0  0  0
 73 24  1  6  0  0  0
 24182  1  0  0  0  0
 25 66  2  0  0  0  0
 85 26  1  1  0  0  0
 26102  1  0  0  0  0
 75 27  1  1  0  0  0
 27183  1  0  0  0  0
 76 28  1  6  0  0  0
 28184  1  0  0  0  0
 29 67  2  0  0  0  0
 77 30  1  6  0  0  0
 30186  1  0  0  0  0
 78 31  1  1  0  0  0
 31187  1  0  0  0  0
 80 32  1  6  0  0  0
 32188  1  0  0  0  0
 86 33  1  1  0  0  0
 33107  1  0  0  0  0
 34 82  1  0  0  0  0
 34190  1  0  0  0  0
 84 35  1  6  0  0  0
 35191  1  0  0  0  0
 36 89  1  0  0  0  0
 36114  1  0  0  0  0
 37 92  1  0  0  0  0
 37194  1  0  0  0  0
 38 93  1  0  0  0  0
 38195  1  0  0  0  0
 39 96  1  0  0  0  0
 39198  1  0  0  0  0
 40 99  1  0  0  0  0
 40204  1  0  0  0  0
 41105  1  0  0  0  0
 41205  1  0  0  0  0
 42112  1  0  0  0  0
 42210  1  0  0  0  0
 43117  1  0  0  0  0
 43211  1  0  0  0  0
 44114  2  0  0  0  0
 45 46  1  0  0  0  0
 45 50  1  0  0  0  0
 45123  1  0  0  0  0
 46 47  1  0  0  0  0
 46124  1  0  0  0  0
 47 51  1  0  0  0  0
 47125  1  0  0  0  0
 48 49  1  0  0  0  0
 48126  1  0  0  0  0
 49 52  1  0  0  0  0
 49127  1  0  0  0  0
 50128  1  0  0  0  0
 51 55  1  1  0  0  0
 51129  1  0  0  0  0
 52 53  1  0  0  0  0
 52130  1  0  0  0  0
 53 54  1  0  0  0  0
 53131  1  0  0  0  0
 54 56  1  6  0  0  0
 54132  1  0  0  0  0
 55133  1  0  0  0  0
 55134  1  0  0  0  0
 56135  1  0  0  0  0
 56136  1  0  0  0  0
 57 58  2  0  0  0  0
 57 59  1  0  0  0  0
 58 74  1  0  0  0  0
 59 65  2  0  0  0  0
 59142  1  0  0  0  0
 60 61  1  0  0  0  0
 60 62  1  0  0  0  0
 60143  1  0  0  0  0
 61 63  1  0  0  0  0
 61144  1  0  0  0  0
 62 64  1  0  0  0  0
 62145  1  0  0  0  0
 63146  1  0  0  0  0
 64 82  1  6  0  0  0
 64147  1  0  0  0  0
 65 68  1  0  0  0  0
 65 71  1  0  0  0  0
 66 90  1  0  0  0  0
 67 91  1  0  0  0  0
 68 87  1  0  0  0  0
 69 70  1  0  0  0  0
 69 72  1  0  0  0  0
 69148  1  0  0  0  0
 70 73  1  0  0  0  0
 70149  1  0  0  0  0
 71 88  2  0  0  0  0
 72 89  1  1  0  0  0
 72150  1  0  0  0  0
 73 79  1  0  0  0  0
 73151  1  0  0  0  0
 74 94  2  0  0  0  0
 74 95  1  0  0  0  0
 75 76  1  0  0  0  0
 75 80  1  0  0  0  0
 75152  1  0  0  0  0
 76 81  1  0  0  0  0
 76153  1  0  0  0  0
 77 78  1  0  0  0  0
 77 83  1  0  0  0  0
 77154  1  0  0  0  0
 78 84  1  0  0  0  0
 78155  1  0  0  0  0
 79156  1  0  0  0  0
 80 85  1  0  0  0  0
 80157  1  0  0  0  0
 81 93  1  1  0  0  0
 81158  1  0  0  0  0
 82159  1  0  0  0  0
 82160  1  0  0  0  0
 83 96  1  1  0  0  0
 83161  1  0  0  0  0
 84 86  1  0  0  0  0
 84162  1  0  0  0  0
 85163  1  0  0  0  0
 86164  1  0  0  0  0
 87 92  2  0  0  0  0
 87165  1  0  0  0  0
 88 92  1  0  0  0  0
 88166  1  0  0  0  0
 89167  1  0  0  0  0
 89168  1  0  0  0  0
 90 97  2  0  0  0  0
 90169  1  0  0  0  0
 91 98  2  3  0  0  0
 91173  1  0  0  0  0
 93174  1  0  0  0  0
 93175  1  0  0  0  0
 94 99  1  0  0  0  0
 94178  1  0  0  0  0
 95100  2  0  0  0  0
 95179  1  0  0  0  0
 96176  1  0  0  0  0
 96177  1  0  0  0  0
 97103  1  0  0  0  0
 97185  1  0  0  0  0
 98104  1  0  0  0  0
 98189  1  0  0  0  0
 99105  2  0  0  0  0
100105  1  0  0  0  0
100192  1  0  0  0  0
101108  2  0  0  0  0
101109  1  0  0  0  0
102106  1  0  0  0  0
102112  2  0  0  0  0
103110  2  0  0  0  0
103111  1  0  0  0  0
104106  2  0  0  0  0
104113  1  0  0  0  0
106193  1  0  0  0  0
107116  1  0  0  0  0
107117  2  0  0  0  0
108110  1  0  0  0  0
108196  1  0  0  0  0
109111  2  0  0  0  0
109197  1  0  0  0  0
110199  1  0  0  0  0
111200  1  0  0  0  0
112115  1  0  0  0  0
113115  2  0  0  0  0
113201  1  0  0  0  0
114119  1  0  0  0  0
115202  1  0  0  0  0
116118  2  0  0  0  0
116203  1  0  0  0  0
117120  1  0  0  0  0
118121  1  0  0  0  0
118122  1  0  0  0  0
119121  2  3  0  0  0
119206  1  0  0  0  0
120122  2  0  0  0  0
120207  1  0  0  0  0
121208  1  0  0  0  0
122209  1  0  0  0  0
M  CHG  1  13   1
M  END
> <PUBCHEM_COMPOUND_CID>
101115386

> <PUBCHEM_COMPOUND_CANONICALIZED>
1

> <PUBCHEM_CACTVS_COMPLEXITY>
3360

> <PUBCHEM_CACTVS_HBOND_ACCEPTOR>
43

> <PUBCHEM_CACTVS_HBOND_DONOR>
25

> <PUBCHEM_CACTVS_ROTATABLE_BOND>
31

> <PUBCHEM_CACTVS_SUBSKEYS>
AAADcfB8PgAAAAAAAAAAAAAAAAAAAAAAAAA0aNGjQAAAAACR9AAAGgAACAAADBSwmAMwDsAABkCIAqDSCAICCAAkIAAIiAFGiMgdNzaGNR6ieWOl4BUPuYfK7PzOIAABCAAIQABAAAIQABCAAAAAAAAAAA==

> <PUBCHEM_IUPAC_OPENEYE_NAME>
[(2R,3S,4S,5R,6S)-6-[2-(3,4-dihydroxyphenyl)-7-hydroxy-5-[(2S,3R,4S,5S,6R)-3,4,5-trihydroxy-6-(hydroxymethyl)tetrahydropyran-2-yl]oxy-chromenylium-3-yl]oxy-3,4-dihydroxy-5-[(2R,3S,4R,5R,6S)-3,4,5-trihydroxy-6-[3-[4-hydroxy-3-[(2S,3R,4S,5S,6R)-3,4,5-trihydroxy-6-(hydroxymethyl)tetrahydropyran-2-yl]oxy-phenyl]prop-2-enoyloxymethyl]tetrahydropyran-2-yl]oxy-tetrahydropyran-2-yl]methyl (E)-3-[4-[(2S,3R,4S,5S,6R)-3,4,5-trihydroxy-6-[3-[4-hydroxy-3-[(2R,3S,4R,5R,6S)-3,4,5-trihydroxy-6-(hydroxymethyl)tetrahydropyran-2-yl]oxy-phenyl]prop-2-enoyloxymethyl]tetrahydropyran-2-yl]oxyphenyl]prop-2-enoate

> <PUBCHEM_IUPAC_CAS_NAME>
(E)-3-[4-[[(2S,3R,4S,5S,6R)-3,4,5-trihydroxy-6-[[3-[4-hydroxy-3-[[(2R,3S,4R,5R,6S)-3,4,5-trihydroxy-6-(hydroxymethyl)-2-oxanyl]oxy]phenyl]-1-oxoprop-2-enoxy]methyl]-2-oxanyl]oxy]phenyl]-2-propenoic acid [(2R,3S,4S,5R,6S)-6-[[2-(3,4-dihydroxyphenyl)-7-hydroxy-5-[[(2S,3R,4S,5S,6R)-3,4,5-trihydroxy-6-(hydroxymethyl)-2-oxanyl]oxy]-1-benzopyrylium-3-yl]oxy]-3,4-dihydroxy-5-[[(2R,3S,4R,5R,6S)-3,4,5-trihydroxy-6-[[3-[4-hydroxy-3-[[(2S,3R,4S,5S,6R)-3,4,5-trihydroxy-6-(hydroxymethyl)-2-oxanyl]oxy]phenyl]-1-oxoprop-2-enoxy]methyl]-2-oxanyl]oxy]-2-oxanyl]methyl ester

> <PUBCHEM_IUPAC_NAME_MARKUP>
[(2<I>R</I>,3<I>S</I>,4<I>S</I>,5<I>R</I>,6<I>S</I>)-6-[2-(3,4-dihydroxyphenyl)-7-hydroxy-5-[(2<I>S</I>,3<I>R</I>,4<I>S</I>,5<I>S</I>,6<I>R</I>)-3,4,5-trihydroxy-6-(hydroxymethyl)oxan-2-yl]oxychromenylium-3-yl]oxy-3,4-dihydroxy-5-[(2<I>R</I>,3<I>S</I>,4<I>R</I>,5<I>R</I>,6<I>S</I>)-3,4,5-trihydroxy-6-[3-[4-hydroxy-3-[(2<I>S</I>,3<I>R</I>,4<I>S</I>,5<I>S</I>,6<I>R</I>)-3,4,5-trihydroxy-6-(hydroxymethyl)oxan-2-yl]oxyphenyl]prop-2-enoyloxymethyl]oxan-2-yl]oxyoxan-2-yl]methyl (<I>E</I>)-3-[4-[(2<I>S</I>,3<I>R</I>,4<I>S</I>,5<I>S</I>,6<I>R</I>)-3,4,5-trihydroxy-6-[3-[4-hydroxy-3-[(2<I>R</I>,3<I>S</I>,4<I>R</I>,5<I>R</I>,6<I>S</I>)-3,4,5-trihydroxy-6-(hydroxymethyl)oxan-2-yl]oxyphenyl]prop-2-enoyloxymethyl]oxan-2-yl]oxyphenyl]prop-2-enoate

> <PUBCHEM_IUPAC_NAME>
[(2R,3S,4S,5R,6S)-6-[2-(3,4-dihydroxyphenyl)-7-hydroxy-5-[(2S,3R,4S,5S,6R)-3,4,5-trihydroxy-6-(hydroxymethyl)oxan-2-yl]oxychromenylium-3-yl]oxy-3,4-dihydroxy-5-[(2R,3S,4R,5R,6S)-3,4,5-trihydroxy-6-[3-[4-hydroxy-3-[(2S,3R,4S,5S,6R)-3,4,5-trihydroxy-6-(hydroxymethyl)oxan-2-yl]oxyphenyl]prop-2-enoyloxymethyl]oxan-2-yl]oxyoxan-2-yl]methyl (E)-3-[4-[(2S,3R,4S,5S,6R)-3,4,5-trihydroxy-6-[3-[4-hydroxy-3-[(2R,3S,4R,5R,6S)-3,4,5-trihydroxy-6-(hydroxymethyl)oxan-2-yl]oxyphenyl]prop-2-enoyloxymethyl]oxan-2-yl]oxyphenyl]prop-2-enoate

> <PUBCHEM_IUPAC_SYSTEMATIC_NAME>
[(2R,3S,4S,5R,6S)-6-[2-[3,4-bis(oxidanyl)phenyl]-5-[(2S,3R,4S,5S,6R)-6-(hydroxymethyl)-3,4,5-tris(oxidanyl)oxan-2-yl]oxy-7-oxidanyl-chromenylium-3-yl]oxy-5-[(2R,3S,4R,5R,6S)-6-[3-[3-[(2S,3R,4S,5S,6R)-6-(hydroxymethyl)-3,4,5-tris(oxidanyl)oxan-2-yl]oxy-4-oxidanyl-phenyl]prop-2-enoyloxymethyl]-3,4,5-tris(oxidanyl)oxan-2-yl]oxy-3,4-bis(oxidanyl)oxan-2-yl]methyl (E)-3-[4-[(2S,3R,4S,5S,6R)-6-[3-[3-[(2R,3S,4R,5R,6S)-6-(hydroxymethyl)-3,4,5-tris(oxidanyl)oxan-2-yl]oxy-4-oxidanyl-phenyl]prop-2-enoyloxymethyl]-3,4,5-tris(oxidanyl)oxan-2-yl]oxyphenyl]prop-2-enoate

> <PUBCHEM_IUPAC_TRADITIONAL_NAME>
(E)-3-[4-[(2S,3R,4S,5S,6R)-3,4,5-trihydroxy-6-[[3-[4-hydroxy-3-[(2R,3S,4R,5R,6S)-3,4,5-trihydroxy-6-methylol-tetrahydropyran-2-yl]oxy-phenyl]acryloyl]oxymethyl]tetrahydropyran-2-yl]oxyphenyl]acrylic acid [(2R,3S,4S,5R,6S)-6-[[2-(3,4-dihydroxyphenyl)-7-hydroxy-5-[(2S,3R,4S,5S,6R)-3,4,5-trihydroxy-6-methylol-tetrahydropyran-2-yl]oxy-1-benzopyrylium-3-yl]oxy]-3,4-dihydroxy-5-[(2R,3S,4R,5R,6S)-3,4,5-trihydroxy-6-[[3-[4-hydroxy-3-[(2S,3R,4S,5S,6R)-3,4,5-trihydroxy-6-methylol-tetrahydropyran-2-yl]oxy-phenyl]acryloyl]oxymethyl]tetrahydropyran-2-yl]oxy-tetrahydropyran-2-yl]methyl ester

> <PUBCHEM_IUPAC_INCHI>
InChI=1S/C78H88O44/c79-23-45-54(90)60(96)67(103)74(116-45)112-41-21-33(82)20-40-35(41)22-44(71(111-40)32-8-13-36(83)39(86)19-32)115-78-72(122-77-70(106)64(100)58(94)49(120-77)27-108-53(89)16-7-31-4-12-38(85)43(18-31)114-76-69(105)62(98)56(92)47(25-81)118-76)65(101)59(95)50(121-78)28-109-51(87)14-5-29-1-9-34(10-2-29)110-73-66(102)63(99)57(93)48(119-73)26-107-52(88)15-6-30-3-11-37(84)42(17-30)113-75-68(104)61(97)55(91)46(24-80)117-75/h1-22,45-50,54-70,72-81,90-106H,23-28H2,(H4-,82,83,84,85,86,88,89)/p+1/b14-5+/t45-,46+,47-,48-,49+,50-,54-,55+,56-,57-,58+,59-,60+,61-,62+,63+,64-,65+,66-,67-,68+,69-,70+,72-,73-,74-,75+,76-,77-,78-/m1/s1

> <PUBCHEM_IUPAC_INCHIKEY>
RGVQQOWPZHERDC-WVYMXQQSSA-O

> <PUBCHEM_EXACT_MASS>
1729.4726711

> <PUBCHEM_MOLECULAR_FORMULA>
C78H89O44+

> <PUBCHEM_MOLECULAR_WEIGHT>
1730.5

> <PUBCHEM_OPENEYE_CAN_SMILES>
C1=CC(=CC=C1C=CC(=O)OCC2C(C(C(C(O2)OC3=C([O+]=C4C=C(C=C(C4=C3)OC5C(C(C(C(O5)CO)O)O)O)O)C6=CC(=C(C=C6)O)O)OC7C(C(C(C(O7)COC(=O)C=CC8=CC(=C(C=C8)O)OC9C(C(C(C(O9)CO)O)O)O)O)O)O)O)O)OC1C(C(C(C(O1)COC(=O)C=CC1=CC(=C(C=C1)O)OC1C(C(C(C(O1)CO)O)O)O)O)O)O

> <PUBCHEM_OPENEYE_ISO_SMILES>
C1=CC(=CC=C1/C=C/C(=O)OC[C@@H]2[C@H]([C@@H]([C@H]([C@@H](O2)OC3=C([O+]=C4C=C(C=C(C4=C3)O[C@H]5[C@@H]([C@H]([C@@H]([C@H](O5)CO)O)O)O)O)C6=CC(=C(C=C6)O)O)O[C@@H]7[C@H]([C@@H]([C@H]([C@@H](O7)COC(=O)C=CC8=CC(=C(C=C8)O)O[C@H]9[C@@H]([C@H]([C@@H]([C@H](O9)CO)O)O)O)O)O)O)O)O)O[C@H]1[C@@H]([C@H]([C@@H]([C@H](O1)COC(=O)C=CC1=CC(=C(C=C1)O)O[C@@H]1[C@H]([C@@H]([C@H]([C@@H](O1)CO)O)O)O)O)O)O

> <PUBCHEM_CACTVS_TPSA>
696

> <PUBCHEM_MONOISOTOPIC_WEIGHT>
1729.4726711

> <PUBCHEM_TOTAL_CHARGE>
1

> <PUBCHEM_HEAVY_ATOM_COUNT>
122

> <PUBCHEM_ATOM_DEF_STEREO_COUNT>
30

> <PUBCHEM_ATOM_UDEF_STEREO_COUNT>
0

> <PUBCHEM_BOND_DEF_STEREO_COUNT>
1

> <PUBCHEM_BOND_UDEF_STEREO_COUNT>
2

> <PUBCHEM_ISOTOPIC_ATOM_COUNT>
0

> <PUBCHEM_COMPONENT_COUNT>
1

> <PUBCHEM_CACTVS_TAUTO_COUNT>
-1

> <PUBCHEM_COORDINATE_TYPE>
1
5
255

> <PUBCHEM_BONDANNOTATIONS>
45  1  6
48  1  6
100  105  8
101  108  8
101  109  8
102  106  8
102  112  8
103  110  8
103  111  8
104  106  8
104  113  8
107  116  8
107  117  8
108  110  8
109  111  8
112  115  8
113  115  8
116  118  8
117  120  8
118  122  8
119  121  1
120  122  8
13  58  8
13  68  8
63  14  6
60  17  6
61  18  5
62  19  5
79  21  5
69  22  6
70  23  5
73  24  6
85  26  5
75  27  5
76  28  6
77  30  6
78  31  5
80  32  6
86  33  5
84  35  6
50  4  5
46  5  5
51  55  5
54  56  6
57  58  8
57  59  8
59  65  8
47  6  6
64  82  6
65  68  8
65  71  8
68  87  8
49  7  5
71  88  8
72  89  5
74  94  8
74  95  8
52  8  6
81  93  5
83  96  5
87  92  8
88  92  8
53  9  5
91  98  1
94  99  8
95  100  8
99  105  8

$$$$
