9804635
  -OEChem-02222203102D

 82 82  0     1  0  0  0  0  0999 V2000
   13.0382   -0.3783    0.0000 O   0  0  0  0  0  0  0  0  0  0  0  0
   15.4183    1.7771    0.0000 O   0  0  0  0  0  0  0  0  0  0  0  0
   11.3311   -1.0854    0.0000 O   0  0  0  0  0  0  0  0  0  0  0  0
   16.6431    0.5523    0.0000 O   0  0  0  0  0  0  0  0  0  0  0  0
   19.7303    2.4148    0.0000 O   0  0  0  0  0  0  0  0  0  0  0  0
   18.0573    1.9665    0.0000 N   0  0  0  0  0  0  0  0  0  0  0  0
   12.0382    0.6217    0.0000 C   0  0  2  0  0  0  0  0  0  0  0  0
   13.0382    0.6217    0.0000 C   0  0  2  0  0  0  0  0  0  0  0  0
   13.7453    1.3288    0.0000 C   0  0  0  0  0  0  0  0  0  0  0  0
   11.3311    1.3288    0.0000 C   0  0  0  0  0  0  0  0  0  0  0  0
   14.7112    1.0700    0.0000 C   0  0  2  0  0  0  0  0  0  0  0  0
   12.0382   -0.3783    0.0000 C   0  0  0  0  0  0  0  0  0  0  0  0
   10.3652    1.0700    0.0000 C   0  0  0  0  0  0  0  0  0  0  0  0
   14.9700    0.1040    0.0000 C   0  0  0  0  0  0  0  0  0  0  0  0
    9.6581    1.7771    0.0000 C   0  0  0  0  0  0  0  0  0  0  0  0
   15.9360   -0.1548    0.0000 C   0  0  0  0  0  0  0  0  0  0  0  0
    8.6921    1.5182    0.0000 C   0  0  0  0  0  0  0  0  0  0  0  0
    7.9850    2.2254    0.0000 C   0  0  0  0  0  0  0  0  0  0  0  0
   16.1948   -1.1207    0.0000 C   0  0  0  0  0  0  0  0  0  0  0  0
    7.0191    1.9665    0.0000 C   0  0  0  0  0  0  0  0  0  0  0  0
   17.1607   -1.3795    0.0000 C   0  0  0  0  0  0  0  0  0  0  0  0
    6.3120    2.6736    0.0000 C   0  0  0  0  0  0  0  0  0  0  0  0
    5.3461    2.4148    0.0000 C   0  0  0  0  0  0  0  0  0  0  0  0
   17.4195   -2.3455    0.0000 C   0  0  0  0  0  0  0  0  0  0  0  0
   16.3843    1.5182    0.0000 C   0  0  0  0  0  0  0  0  0  0  0  0
    4.6390    3.1219    0.0000 C   0  0  0  0  0  0  0  0  0  0  0  0
   18.3855   -2.6043    0.0000 C   0  0  0  0  0  0  0  0  0  0  0  0
   17.0914    2.2254    0.0000 C   0  0  0  0  0  0  0  0  0  0  0  0
    3.6730    2.8631    0.0000 C   0  0  0  0  0  0  0  0  0  0  0  0
    2.9659    3.5702    0.0000 C   0  0  0  0  0  0  0  0  0  0  0  0
   18.6443   -3.5702    0.0000 C   0  0  0  0  0  0  0  0  0  0  0  0
    2.0000    3.3114    0.0000 C   0  0  0  0  0  0  0  0  0  0  0  0
   18.7644    2.6736    0.0000 C   0  0  0  0  0  0  0  0  0  0  0  0
   11.4654    0.3844    0.0000 H   0  0  0  0  0  0  0  0  0  0  0  0
   13.6110    0.3844    0.0000 H   0  0  0  0  0  0  0  0  0  0  0  0
   14.0073    1.8907    0.0000 H   0  0  0  0  0  0  0  0  0  0  0  0
   13.2374    1.6844    0.0000 H   0  0  0  0  0  0  0  0  0  0  0  0
   11.8390    1.6844    0.0000 H   0  0  0  0  0  0  0  0  0  0  0  0
   11.0691    1.8907    0.0000 H   0  0  0  0  0  0  0  0  0  0  0  0
   15.3101    0.9095    0.0000 H   0  0  0  0  0  0  0  0  0  0  0  0
    9.8573    0.7143    0.0000 H   0  0  0  0  0  0  0  0  0  0  0  0
   10.6272    0.5080    0.0000 H   0  0  0  0  0  0  0  0  0  0  0  0
   14.3524    0.0500    0.0000 H   0  0  0  0  0  0  0  0  0  0  0  0
   14.9160   -0.5136    0.0000 H   0  0  0  0  0  0  0  0  0  0  0  0
   10.1659    2.1327    0.0000 H   0  0  0  0  0  0  0  0  0  0  0  0
    9.3960    2.3390    0.0000 H   0  0  0  0  0  0  0  0  0  0  0  0
   16.5536   -0.1008    0.0000 H   0  0  0  0  0  0  0  0  0  0  0  0
   15.9900    0.4628    0.0000 H   0  0  0  0  0  0  0  0  0  0  0  0
    8.1843    1.1626    0.0000 H   0  0  0  0  0  0  0  0  0  0  0  0
    8.9542    0.9563    0.0000 H   0  0  0  0  0  0  0  0  0  0  0  0
    8.4929    2.5810    0.0000 H   0  0  0  0  0  0  0  0  0  0  0  0
    7.7230    2.7873    0.0000 H   0  0  0  0  0  0  0  0  0  0  0  0
   15.5772   -1.1748    0.0000 H   0  0  0  0  0  0  0  0  0  0  0  0
   16.1408   -1.7384    0.0000 H   0  0  0  0  0  0  0  0  0  0  0  0
    6.5112    1.6109    0.0000 H   0  0  0  0  0  0  0  0  0  0  0  0
    7.2811    1.4046    0.0000 H   0  0  0  0  0  0  0  0  0  0  0  0
   17.7784   -1.3255    0.0000 H   0  0  0  0  0  0  0  0  0  0  0  0
   17.2148   -0.7619    0.0000 H   0  0  0  0  0  0  0  0  0  0  0  0
    6.8199    3.0293    0.0000 H   0  0  0  0  0  0  0  0  0  0  0  0
    6.0500    3.2355    0.0000 H   0  0  0  0  0  0  0  0  0  0  0  0
    4.8382    2.0592    0.0000 H   0  0  0  0  0  0  0  0  0  0  0  0
    5.6081    1.8529    0.0000 H   0  0  0  0  0  0  0  0  0  0  0  0
   16.8019   -2.3995    0.0000 H   0  0  0  0  0  0  0  0  0  0  0  0
   17.3655   -2.9631    0.0000 H   0  0  0  0  0  0  0  0  0  0  0  0
    5.1468    3.4775    0.0000 H   0  0  0  0  0  0  0  0  0  0  0  0
    4.3769    3.6838    0.0000 H   0  0  0  0  0  0  0  0  0  0  0  0
   19.0031   -2.5502    0.0000 H   0  0  0  0  0  0  0  0  0  0  0  0
   18.4395   -1.9866    0.0000 H   0  0  0  0  0  0  0  0  0  0  0  0
    3.1652    2.5075    0.0000 H   0  0  0  0  0  0  0  0  0  0  0  0
    3.9351    2.3012    0.0000 H   0  0  0  0  0  0  0  0  0  0  0  0
   17.3534    2.7873    0.0000 H   0  0  0  0  0  0  0  0  0  0  0  0
   16.5835    2.5810    0.0000 H   0  0  0  0  0  0  0  0  0  0  0  0
    3.4738    3.9258    0.0000 H   0  0  0  0  0  0  0  0  0  0  0  0
    2.7039    4.1321    0.0000 H   0  0  0  0  0  0  0  0  0  0  0  0
   18.0454   -3.7307    0.0000 H   0  0  0  0  0  0  0  0  0  0  0  0
   18.8047   -4.1691    0.0000 H   0  0  0  0  0  0  0  0  0  0  0  0
   19.2432   -3.4097    0.0000 H   0  0  0  0  0  0  0  0  0  0  0  0
   18.2178    1.3676    0.0000 H   0  0  0  0  0  0  0  0  0  0  0  0
    1.8395    3.9103    0.0000 H   0  0  0  0  0  0  0  0  0  0  0  0
    1.4011    3.1509    0.0000 H   0  0  0  0  0  0  0  0  0  0  0  0
    2.1605    2.7125    0.0000 H   0  0  0  0  0  0  0  0  0  0  0  0
   18.6039    3.2725    0.0000 H   0  0  0  0  0  0  0  0  0  0  0  0
  1  8  1  0  0  0  0
  1 12  1  0  0  0  0
 11  2  1  1  0  0  0
  2 25  1  0  0  0  0
  3 12  2  0  0  0  0
  4 25  2  0  0  0  0
  5 33  2  0  0  0  0
  6 28  1  0  0  0  0
  6 33  1  0  0  0  0
  6 78  1  0  0  0  0
  7  8  1  0  0  0  0
  7 10  1  1  0  0  0
  7 12  1  0  0  0  0
  7 34  1  0  0  0  0
  8  9  1  6  0  0  0
  8 35  1  0  0  0  0
  9 11  1  0  0  0  0
  9 36  1  0  0  0  0
  9 37  1  0  0  0  0
 10 13  1  0  0  0  0
 10 38  1  0  0  0  0
 10 39  1  0  0  0  0
 11 14  1  0  0  0  0
 11 40  1  0  0  0  0
 13 15  1  0  0  0  0
 13 41  1  0  0  0  0
 13 42  1  0  0  0  0
 14 16  1  0  0  0  0
 14 43  1  0  0  0  0
 14 44  1  0  0  0  0
 15 17  1  0  0  0  0
 15 45  1  0  0  0  0
 15 46  1  0  0  0  0
 16 19  1  0  0  0  0
 16 47  1  0  0  0  0
 16 48  1  0  0  0  0
 17 18  1  0  0  0  0
 17 49  1  0  0  0  0
 17 50  1  0  0  0  0
 18 20  1  0  0  0  0
 18 51  1  0  0  0  0
 18 52  1  0  0  0  0
 19 21  1  0  0  0  0
 19 53  1  0  0  0  0
 19 54  1  0  0  0  0
 20 22  1  0  0  0  0
 20 55  1  0  0  0  0
 20 56  1  0  0  0  0
 21 24  1  0  0  0  0
 21 57  1  0  0  0  0
 21 58  1  0  0  0  0
 22 23  1  0  0  0  0
 22 59  1  0  0  0  0
 22 60  1  0  0  0  0
 23 26  1  0  0  0  0
 23 61  1  0  0  0  0
 23 62  1  0  0  0  0
 24 27  1  0  0  0  0
 24 63  1  0  0  0  0
 24 64  1  0  0  0  0
 25 28  1  0  0  0  0
 26 29  1  0  0  0  0
 26 65  1  0  0  0  0
 26 66  1  0  0  0  0
 27 31  1  0  0  0  0
 27 67  1  0  0  0  0
 27 68  1  0  0  0  0
 28 71  1  0  0  0  0
 28 72  1  0  0  0  0
 29 30  1  0  0  0  0
 29 69  1  0  0  0  0
 29 70  1  0  0  0  0
 30 32  1  0  0  0  0
 30 73  1  0  0  0  0
 30 74  1  0  0  0  0
 31 75  1  0  0  0  0
 31 76  1  0  0  0  0
 31 77  1  0  0  0  0
 32 79  1  0  0  0  0
 32 80  1  0  0  0  0
 32 81  1  0  0  0  0
 33 82  1  0  0  0  0
M  END
> <PUBCHEM_COMPOUND_CID>
9804635

> <PUBCHEM_COMPOUND_CANONICALIZED>
1

> <PUBCHEM_CACTVS_COMPLEXITY>
525

> <PUBCHEM_CACTVS_HBOND_ACCEPTOR>
5

> <PUBCHEM_CACTVS_HBOND_DONOR>
1

> <PUBCHEM_CACTVS_ROTATABLE_BOND>
23

> <PUBCHEM_CACTVS_SUBSKEYS>
AAADcfB6OAAAAAAAAAAAAAAAAABIAAAAAAAAAAAAAAAAAAAAAAAAHgAQAAAADRThgAYCCALABAAIAACQmAAAAAAAAAAAAIGIAAACABYAACADAAAFJgAQAAGI7OzOAAAAAAAAAAAAAAAAAAAAAAAAAAAAAA==

> <PUBCHEM_IUPAC_OPENEYE_NAME>
[(1S)-1-[[(2S,3S)-3-dodecyl-4-oxo-oxetan-2-yl]methyl]octyl] 2-formamidoacetate

> <PUBCHEM_IUPAC_CAS_NAME>
2-formamidoacetic acid [(2S)-1-[(2S,3S)-3-dodecyl-4-oxo-2-oxetanyl]nonan-2-yl] ester

> <PUBCHEM_IUPAC_NAME_MARKUP>
[(2<I>S</I>)-1-[(2<I>S</I>,3<I>S</I>)-3-dodecyl-4-oxooxetan-2-yl]nonan-2-yl] 2-formamidoacetate

> <PUBCHEM_IUPAC_NAME>
[(2S)-1-[(2S,3S)-3-dodecyl-4-oxooxetan-2-yl]nonan-2-yl] 2-formamidoacetate

> <PUBCHEM_IUPAC_SYSTEMATIC_NAME>
[(2S)-1-[(2S,3S)-3-dodecyl-4-oxidanylidene-oxetan-2-yl]nonan-2-yl] 2-formamidoethanoate

> <PUBCHEM_IUPAC_TRADITIONAL_NAME>
2-formamidoacetic acid [(1S)-1-[[(2S,3S)-4-keto-3-lauryl-oxetan-2-yl]methyl]octyl] ester

> <PUBCHEM_IUPAC_INCHI>
InChI=1S/C27H49NO5/c1-3-5-7-9-10-11-12-13-15-17-19-24-25(33-27(24)31)20-23(18-16-14-8-6-4-2)32-26(30)21-28-22-29/h22-25H,3-21H2,1-2H3,(H,28,29)/t23-,24-,25-/m0/s1

> <PUBCHEM_IUPAC_INCHIKEY>
HOPVINBCAGNBQT-SDHOMARFSA-N

> <PUBCHEM_XLOGP3_AA>
9.3

> <PUBCHEM_EXACT_MASS>
467.36107366

> <PUBCHEM_MOLECULAR_FORMULA>
C27H49NO5

> <PUBCHEM_MOLECULAR_WEIGHT>
467.7

> <PUBCHEM_OPENEYE_CAN_SMILES>
CCCCCCCCCCCCC1C(OC1=O)CC(CCCCCCC)OC(=O)CNC=O

> <PUBCHEM_OPENEYE_ISO_SMILES>
CCCCCCCCCCCC[C@H]1[C@@H](OC1=O)C[C@H](CCCCCCC)OC(=O)CNC=O

> <PUBCHEM_CACTVS_TPSA>
81.7

> <PUBCHEM_MONOISOTOPIC_WEIGHT>
467.36107366

> <PUBCHEM_TOTAL_CHARGE>
0

> <PUBCHEM_HEAVY_ATOM_COUNT>
33

> <PUBCHEM_ATOM_DEF_STEREO_COUNT>
3

> <PUBCHEM_ATOM_UDEF_STEREO_COUNT>
0

> <PUBCHEM_BOND_DEF_STEREO_COUNT>
0

> <PUBCHEM_BOND_UDEF_STEREO_COUNT>
0

> <PUBCHEM_ISOTOPIC_ATOM_COUNT>
0

> <PUBCHEM_COMPONENT_COUNT>
1

> <PUBCHEM_CACTVS_TAUTO_COUNT>
-1

> <PUBCHEM_COORDINATE_TYPE>
1
5
255

> <PUBCHEM_BONDANNOTATIONS>
11  2  5
7  10  5
8  9  6

$$$$
