44428630
  -OEChem-02202223502D

 66 68  0     1  0  0  0  0  0999 V2000
    8.6173   -0.2450    0.0000 O   0  0  0  0  0  0  0  0  0  0  0  0
    2.5333   -0.8297    0.0000 O   0  0  0  0  0  0  0  0  0  0  0  0
   10.3494    1.7550    0.0000 O   0  0  0  0  0  0  0  0  0  0  0  0
    5.0872   -0.2692    0.0000 O   0  0  0  0  0  0  0  0  0  0  0  0
    6.8689    2.7896    0.0000 O   0  0  0  0  0  0  0  0  0  0  0  0
    8.6173    2.7550    0.0000 O   0  0  0  0  0  0  0  0  0  0  0  0
    9.4834   -1.7450    0.0000 O   0  0  0  0  0  0  0  0  0  0  0  0
   12.9475   -1.7450    0.0000 O   0  0  0  0  0  0  0  0  0  0  0  0
    6.0088   -1.7896    0.0000 C   0  0  2  0  0  0  0  0  0  0  0  0
    5.1370   -1.2997    0.0000 C   0  0  0  0  0  0  0  0  0  0  0  0
    6.8689   -1.2796    0.0000 C   0  0  0  0  0  0  0  0  0  0  0  0
    4.2768   -1.8096    0.0000 C   0  0  0  0  0  0  0  0  0  0  0  0
    3.4051   -1.3197    0.0000 C   0  0  0  0  0  0  0  0  0  0  0  0
    6.8574   -0.2797    0.0000 C   0  0  0  0  0  0  0  0  0  0  0  0
    7.7513    0.2550    0.0000 C   0  0  0  0  0  0  0  0  0  0  0  0
    6.0203   -2.7896    0.0000 C   0  0  0  0  0  0  0  0  0  0  0  0
    9.4834    0.2550    0.0000 C   0  0  1  0  0  0  0  0  0  0  0  0
    7.7513    1.2550    0.0000 C   0  0  0  0  0  0  0  0  0  0  0  0
    9.4834    1.2550    0.0000 C   0  0  1  0  0  0  0  0  0  0  0  0
    5.9513    0.2341    0.0000 C   0  0  0  0  0  0  0  0  0  0  0  0
    8.6173    1.7550    0.0000 C   0  0  0  0  0  0  0  0  0  0  0  0
    2.9151   -2.1914    0.0000 C   0  0  0  0  0  0  0  0  0  0  0  0
    3.8950   -0.4479    0.0000 C   0  0  0  0  0  0  0  0  0  0  0  0
    6.8574    1.7896    0.0000 C   0  0  0  0  0  0  0  0  0  0  0  0
   10.3494   -0.2450    0.0000 C   0  0  0  0  0  0  0  0  0  0  0  0
    5.1601   -3.2995    0.0000 C   0  0  0  0  0  0  0  0  0  0  0  0
    5.9513    1.2758    0.0000 C   0  0  0  0  0  0  0  0  0  0  0  0
    6.8921   -3.2795    0.0000 C   0  0  0  0  0  0  0  0  0  0  0  0
   10.3494   -1.2450    0.0000 C   0  0  0  0  0  0  0  0  0  0  0  0
   11.2154    0.2550    0.0000 C   0  0  0  0  0  0  0  0  0  0  0  0
   11.2154   -1.7450    0.0000 C   0  0  0  0  0  0  0  0  0  0  0  0
   12.0814   -0.2450    0.0000 C   0  0  0  0  0  0  0  0  0  0  0  0
   12.0814   -1.2450    0.0000 C   0  0  0  0  0  0  0  0  0  0  0  0
    6.0088    3.2995    0.0000 C   0  0  0  0  0  0  0  0  0  0  0  0
    5.4754   -2.1058    0.0000 H   0  0  0  0  0  0  0  0  0  0  0  0
    5.5300   -0.8201    0.0000 H   0  0  0  0  0  0  0  0  0  0  0  0
    4.7330   -0.8294    0.0000 H   0  0  0  0  0  0  0  0  0  0  0  0
    7.0877   -1.8598    0.0000 H   0  0  0  0  0  0  0  0  0  0  0  0
    7.4782   -1.1649    0.0000 H   0  0  0  0  0  0  0  0  0  0  0  0
    3.8838   -2.2892    0.0000 H   0  0  0  0  0  0  0  0  0  0  0  0
    4.6808   -2.2800    0.0000 H   0  0  0  0  0  0  0  0  0  0  0  0
    9.4834   -0.5950    0.0000 H   0  0  0  0  0  0  0  0  0  0  0  0
   10.0203    0.9450    0.0000 H   0  0  0  0  0  0  0  0  0  0  0  0
    2.3746   -1.8877    0.0000 H   0  0  0  0  0  0  0  0  0  0  0  0
    2.6113   -2.7319    0.0000 H   0  0  0  0  0  0  0  0  0  0  0  0
    3.4556   -2.4952    0.0000 H   0  0  0  0  0  0  0  0  0  0  0  0
    4.4355   -0.7517    0.0000 H   0  0  0  0  0  0  0  0  0  0  0  0
    4.1988    0.0925    0.0000 H   0  0  0  0  0  0  0  0  0  0  0  0
    3.3545   -0.1442    0.0000 H   0  0  0  0  0  0  0  0  0  0  0  0
    4.8439   -2.7662    0.0000 H   0  0  0  0  0  0  0  0  0  0  0  0
    4.6268   -3.6157    0.0000 H   0  0  0  0  0  0  0  0  0  0  0  0
    5.4763   -3.8328    0.0000 H   0  0  0  0  0  0  0  0  0  0  0  0
    5.4156    1.5878    0.0000 H   0  0  0  0  0  0  0  0  0  0  0  0
    2.0000   -1.1459    0.0000 H   0  0  0  0  0  0  0  0  0  0  0  0
    6.8992   -3.8995    0.0000 H   0  0  0  0  0  0  0  0  0  0  0  0
    7.4254   -2.9633    0.0000 H   0  0  0  0  0  0  0  0  0  0  0  0
   11.2154    0.8750    0.0000 H   0  0  0  0  0  0  0  0  0  0  0  0
   10.3494    2.3750    0.0000 H   0  0  0  0  0  0  0  0  0  0  0  0
    4.5491    0.0387    0.0000 H   0  0  0  0  0  0  0  0  0  0  0  0
   11.2154   -2.3650    0.0000 H   0  0  0  0  0  0  0  0  0  0  0  0
   12.6184    0.0650    0.0000 H   0  0  0  0  0  0  0  0  0  0  0  0
    6.3249    3.8328    0.0000 H   0  0  0  0  0  0  0  0  0  0  0  0
    5.4754    3.6157    0.0000 H   0  0  0  0  0  0  0  0  0  0  0  0
    5.6926    2.7662    0.0000 H   0  0  0  0  0  0  0  0  0  0  0  0
    9.4834   -2.3650    0.0000 H   0  0  0  0  0  0  0  0  0  0  0  0
   13.4844   -1.4350    0.0000 H   0  0  0  0  0  0  0  0  0  0  0  0
  1 15  1  0  0  0  0
  1 17  1  0  0  0  0
  2 13  1  0  0  0  0
  2 54  1  0  0  0  0
 19  3  1  1  0  0  0
  3 58  1  0  0  0  0
  4 20  1  0  0  0  0
  4 59  1  0  0  0  0
  5 24  1  0  0  0  0
  5 34  1  0  0  0  0
  6 21  2  0  0  0  0
  7 29  1  0  0  0  0
  7 65  1  0  0  0  0
  8 33  1  0  0  0  0
  8 66  1  0  0  0  0
  9 10  1  6  0  0  0
  9 11  1  0  0  0  0
  9 16  1  0  0  0  0
  9 35  1  0  0  0  0
 10 12  1  0  0  0  0
 10 36  1  0  0  0  0
 10 37  1  0  0  0  0
 11 14  1  0  0  0  0
 11 38  1  0  0  0  0
 11 39  1  0  0  0  0
 12 13  1  0  0  0  0
 12 40  1  0  0  0  0
 12 41  1  0  0  0  0
 13 22  1  0  0  0  0
 13 23  1  0  0  0  0
 14 15  2  0  0  0  0
 14 20  1  0  0  0  0
 15 18  1  0  0  0  0
 16 26  1  0  0  0  0
 16 28  2  0  0  0  0
 17 19  1  0  0  0  0
 17 25  1  0  0  0  0
 17 42  1  6  0  0  0
 18 21  1  0  0  0  0
 18 24  2  0  0  0  0
 19 21  1  0  0  0  0
 19 43  1  0  0  0  0
 20 27  2  0  0  0  0
 22 44  1  0  0  0  0
 22 45  1  0  0  0  0
 22 46  1  0  0  0  0
 23 47  1  0  0  0  0
 23 48  1  0  0  0  0
 23 49  1  0  0  0  0
 24 27  1  0  0  0  0
 25 29  2  0  0  0  0
 25 30  1  0  0  0  0
 26 50  1  0  0  0  0
 26 51  1  0  0  0  0
 26 52  1  0  0  0  0
 27 53  1  0  0  0  0
 28 55  1  0  0  0  0
 28 56  1  0  0  0  0
 29 31  1  0  0  0  0
 30 32  2  0  0  0  0
 30 57  1  0  0  0  0
 31 33  2  0  0  0  0
 31 60  1  0  0  0  0
 32 33  1  0  0  0  0
 32 61  1  0  0  0  0
 34 62  1  0  0  0  0
 34 63  1  0  0  0  0
 34 64  1  0  0  0  0
M  END
> <PUBCHEM_COMPOUND_CID>
44428630

> <PUBCHEM_COMPOUND_CANONICALIZED>
1

> <PUBCHEM_CACTVS_COMPLEXITY>
724

> <PUBCHEM_CACTVS_HBOND_ACCEPTOR>
8

> <PUBCHEM_CACTVS_HBOND_DONOR>
5

> <PUBCHEM_CACTVS_ROTATABLE_BOND>
8

> <PUBCHEM_CACTVS_SUBSKEYS>
AAADcfB4PAAAAAAAAAAAAAAAAAAAAAAAAAA0YIAAAAAAAACRQAAAGgAACAAADVSgmAIyBoAABgCIAqBSAAICCAAkIAAIiAFGCMgNNzaGNRqCeWCl4BULuQfI7PzOIAACCAAIAABAAAQQABAAAAAAAAAAAA==

> <PUBCHEM_IUPAC_OPENEYE_NAME>
(2R,3S)-2-(2,4-dihydroxyphenyl)-3,7-dihydroxy-8-[(2R)-5-hydroxy-2-isopropenyl-5-methyl-hexyl]-5-methoxy-chroman-4-one

> <PUBCHEM_IUPAC_CAS_NAME>
(2R,3S)-2-(2,4-dihydroxyphenyl)-3,7-dihydroxy-8-[(2R)-5-hydroxy-5-methyl-2-(1-methylethenyl)hexyl]-5-methoxy-3,4-dihydro-2H-1-benzopyran-4-one

> <PUBCHEM_IUPAC_NAME_MARKUP>
(2<I>R</I>,3<I>S</I>)-2-(2,4-dihydroxyphenyl)-3,7-dihydroxy-8-[(2<I>R</I>)-5-hydroxy-5-methyl-2-prop-1-en-2-ylhexyl]-5-methoxy-2,3-dihydrochromen-4-one

> <PUBCHEM_IUPAC_NAME>
(2R,3S)-2-(2,4-dihydroxyphenyl)-3,7-dihydroxy-8-[(2R)-5-hydroxy-5-methyl-2-prop-1-en-2-ylhexyl]-5-methoxy-2,3-dihydrochromen-4-one

> <PUBCHEM_IUPAC_SYSTEMATIC_NAME>
(2R,3S)-2-[2,4-bis(oxidanyl)phenyl]-5-methoxy-8-[(2R)-5-methyl-5-oxidanyl-2-prop-1-en-2-yl-hexyl]-3,7-bis(oxidanyl)-2,3-dihydrochromen-4-one

> <PUBCHEM_IUPAC_TRADITIONAL_NAME>
(2R,3S)-2-(2,4-dihydroxyphenyl)-3,7-dihydroxy-8-[(2R)-2-(3-hydroxy-3-methyl-butyl)-3-methyl-but-3-enyl]-5-methoxy-chroman-4-one

> <PUBCHEM_IUPAC_INCHI>
InChI=1S/C26H32O8/c1-13(2)14(8-9-26(3,4)32)10-17-19(29)12-20(33-5)21-22(30)23(31)25(34-24(17)21)16-7-6-15(27)11-18(16)28/h6-7,11-12,14,23,25,27-29,31-32H,1,8-10H2,2-5H3/t14-,23-,25-/m1/s1

> <PUBCHEM_IUPAC_INCHIKEY>
YWHHRFNOJTVNBI-LBEFLKDASA-N

> <PUBCHEM_XLOGP3_AA>
3.7

> <PUBCHEM_EXACT_MASS>
472.20971797

> <PUBCHEM_MOLECULAR_FORMULA>
C26H32O8

> <PUBCHEM_MOLECULAR_WEIGHT>
472.5

> <PUBCHEM_OPENEYE_CAN_SMILES>
CC(=C)C(CCC(C)(C)O)CC1=C2C(=C(C=C1O)OC)C(=O)C(C(O2)C3=C(C=C(C=C3)O)O)O

> <PUBCHEM_OPENEYE_ISO_SMILES>
CC(=C)[C@H](CCC(C)(C)O)CC1=C2C(=C(C=C1O)OC)C(=O)[C@H]([C@H](O2)C3=C(C=C(C=C3)O)O)O

> <PUBCHEM_CACTVS_TPSA>
137

> <PUBCHEM_MONOISOTOPIC_WEIGHT>
472.20971797

> <PUBCHEM_TOTAL_CHARGE>
0

> <PUBCHEM_HEAVY_ATOM_COUNT>
34

> <PUBCHEM_ATOM_DEF_STEREO_COUNT>
3

> <PUBCHEM_ATOM_UDEF_STEREO_COUNT>
0

> <PUBCHEM_BOND_DEF_STEREO_COUNT>
0

> <PUBCHEM_BOND_UDEF_STEREO_COUNT>
0

> <PUBCHEM_ISOTOPIC_ATOM_COUNT>
0

> <PUBCHEM_COMPONENT_COUNT>
1

> <PUBCHEM_CACTVS_TAUTO_COUNT>
-1

> <PUBCHEM_COORDINATE_TYPE>
1
5
255

> <PUBCHEM_BONDANNOTATIONS>
14  15  8
14  20  8
15  18  8
17  42  6
18  24  8
20  27  8
24  27  8
25  29  8
25  30  8
29  31  8
19  3  5
30  32  8
31  33  8
32  33  8
9  10  6

$$$$
