9933639
  -OEChem-02202223582D

 79 79  0     1  0  0  0  0  0999 V2000
   10.3992   -0.2295    0.0000 O   0  0  0  0  0  0  0  0  0  0  0  0
   12.7794    1.9259    0.0000 O   0  0  0  0  0  0  0  0  0  0  0  0
    8.6921   -0.9366    0.0000 O   0  0  0  0  0  0  0  0  0  0  0  0
   14.0041    0.7012    0.0000 O   0  0  0  0  0  0  0  0  0  0  0  0
   17.0914    2.5637    0.0000 O   0  0  0  0  0  0  0  0  0  0  0  0
   15.4183    2.1154    0.0000 N   0  0  0  0  0  0  0  0  0  0  0  0
    9.3992    0.7705    0.0000 C   0  0  2  0  0  0  0  0  0  0  0  0
   10.3992    0.7705    0.0000 C   0  0  2  0  0  0  0  0  0  0  0  0
   11.1063    1.4776    0.0000 C   0  0  0  0  0  0  0  0  0  0  0  0
    8.6921    1.4776    0.0000 C   0  0  0  0  0  0  0  0  0  0  0  0
   12.0723    1.2188    0.0000 C   0  0  2  0  0  0  0  0  0  0  0  0
    9.3992   -0.2295    0.0000 C   0  0  0  0  0  0  0  0  0  0  0  0
    7.7262    1.2188    0.0000 C   0  0  0  0  0  0  0  0  0  0  0  0
   12.3311    0.2529    0.0000 C   0  0  0  0  0  0  0  0  0  0  0  0
    7.0191    1.9259    0.0000 C   0  0  0  0  0  0  0  0  0  0  0  0
   13.2970   -0.0059    0.0000 C   0  0  0  0  0  0  0  0  0  0  0  0
    6.0532    1.6671    0.0000 C   0  0  0  0  0  0  0  0  0  0  0  0
    5.3461    2.3742    0.0000 C   0  0  0  0  0  0  0  0  0  0  0  0
   13.5558   -0.9719    0.0000 C   0  0  0  0  0  0  0  0  0  0  0  0
    4.3801    2.1154    0.0000 C   0  0  0  0  0  0  0  0  0  0  0  0
   14.5218   -1.2307    0.0000 C   0  0  0  0  0  0  0  0  0  0  0  0
    3.6730    2.8225    0.0000 C   0  0  0  0  0  0  0  0  0  0  0  0
   13.7453    1.6671    0.0000 C   0  0  0  0  0  0  0  0  0  0  0  0
    2.7071    2.5637    0.0000 C   0  0  0  0  0  0  0  0  0  0  0  0
   14.7806   -2.1966    0.0000 C   0  0  0  0  0  0  0  0  0  0  0  0
   14.4524    2.3742    0.0000 C   0  0  2  0  0  0  0  0  0  0  0  0
   15.7465   -2.4554    0.0000 C   0  0  0  0  0  0  0  0  0  0  0  0
    2.0000    3.2708    0.0000 C   0  0  0  0  0  0  0  0  0  0  0  0
    2.4483    1.5977    0.0000 C   0  0  0  0  0  0  0  0  0  0  0  0
   14.1936    3.3401    0.0000 C   0  0  0  0  0  0  0  0  0  0  0  0
   16.0053   -3.4214    0.0000 C   0  0  0  0  0  0  0  0  0  0  0  0
   16.1254    2.8225    0.0000 C   0  0  0  0  0  0  0  0  0  0  0  0
    9.6365    1.3433    0.0000 H   0  0  0  0  0  0  0  0  0  0  0  0
   10.9720    0.5333    0.0000 H   0  0  0  0  0  0  0  0  0  0  0  0
   11.3684    2.0395    0.0000 H   0  0  0  0  0  0  0  0  0  0  0  0
   10.5985    1.8332    0.0000 H   0  0  0  0  0  0  0  0  0  0  0  0
    9.2000    1.8332    0.0000 H   0  0  0  0  0  0  0  0  0  0  0  0
    8.4301    2.0395    0.0000 H   0  0  0  0  0  0  0  0  0  0  0  0
   11.9118    1.8177    0.0000 H   0  0  0  0  0  0  0  0  0  0  0  0
    7.2183    0.8632    0.0000 H   0  0  0  0  0  0  0  0  0  0  0  0
    7.9882    0.6569    0.0000 H   0  0  0  0  0  0  0  0  0  0  0  0
   11.7134    0.1988    0.0000 H   0  0  0  0  0  0  0  0  0  0  0  0
   12.2771   -0.3648    0.0000 H   0  0  0  0  0  0  0  0  0  0  0  0
    7.5270    2.2815    0.0000 H   0  0  0  0  0  0  0  0  0  0  0  0
    6.7571    2.4878    0.0000 H   0  0  0  0  0  0  0  0  0  0  0  0
   13.9147    0.0481    0.0000 H   0  0  0  0  0  0  0  0  0  0  0  0
   13.3511    0.6117    0.0000 H   0  0  0  0  0  0  0  0  0  0  0  0
    5.5453    1.3115    0.0000 H   0  0  0  0  0  0  0  0  0  0  0  0
    6.3152    1.1052    0.0000 H   0  0  0  0  0  0  0  0  0  0  0  0
    5.8539    2.7298    0.0000 H   0  0  0  0  0  0  0  0  0  0  0  0
    5.0840    2.9361    0.0000 H   0  0  0  0  0  0  0  0  0  0  0  0
   12.9382   -1.0259    0.0000 H   0  0  0  0  0  0  0  0  0  0  0  0
   13.5018   -1.5895    0.0000 H   0  0  0  0  0  0  0  0  0  0  0  0
    3.8723    1.7598    0.0000 H   0  0  0  0  0  0  0  0  0  0  0  0
    4.6422    1.5535    0.0000 H   0  0  0  0  0  0  0  0  0  0  0  0
   15.1394   -1.1766    0.0000 H   0  0  0  0  0  0  0  0  0  0  0  0
   14.5758   -0.6130    0.0000 H   0  0  0  0  0  0  0  0  0  0  0  0
    4.1809    3.1781    0.0000 H   0  0  0  0  0  0  0  0  0  0  0  0
    3.4110    3.3844    0.0000 H   0  0  0  0  0  0  0  0  0  0  0  0
    2.8676    3.1625    0.0000 H   0  0  0  0  0  0  0  0  0  0  0  0
   14.1629   -2.2506    0.0000 H   0  0  0  0  0  0  0  0  0  0  0  0
   14.7265   -2.8142    0.0000 H   0  0  0  0  0  0  0  0  0  0  0  0
   14.6129    1.7753    0.0000 H   0  0  0  0  0  0  0  0  0  0  0  0
   16.3641   -2.4014    0.0000 H   0  0  0  0  0  0  0  0  0  0  0  0
   15.8005   -1.8378    0.0000 H   0  0  0  0  0  0  0  0  0  0  0  0
    2.4384    3.7092    0.0000 H   0  0  0  0  0  0  0  0  0  0  0  0
    1.5616    3.7092    0.0000 H   0  0  0  0  0  0  0  0  0  0  0  0
    1.5616    2.8324    0.0000 H   0  0  0  0  0  0  0  0  0  0  0  0
    1.8494    1.7582    0.0000 H   0  0  0  0  0  0  0  0  0  0  0  0
    2.2878    0.9989    0.0000 H   0  0  0  0  0  0  0  0  0  0  0  0
    3.0472    1.4373    0.0000 H   0  0  0  0  0  0  0  0  0  0  0  0
   14.7925    3.5006    0.0000 H   0  0  0  0  0  0  0  0  0  0  0  0
   14.0331    3.9390    0.0000 H   0  0  0  0  0  0  0  0  0  0  0  0
   13.5947    3.1796    0.0000 H   0  0  0  0  0  0  0  0  0  0  0  0
   15.4064   -3.5818    0.0000 H   0  0  0  0  0  0  0  0  0  0  0  0
   16.1658   -4.0202    0.0000 H   0  0  0  0  0  0  0  0  0  0  0  0
   16.6042   -3.2609    0.0000 H   0  0  0  0  0  0  0  0  0  0  0  0
   15.5788    1.5165    0.0000 H   0  0  0  0  0  0  0  0  0  0  0  0
   15.9650    3.4214    0.0000 H   0  0  0  0  0  0  0  0  0  0  0  0
  1  8  1  0  0  0  0
  1 12  1  0  0  0  0
 11  2  1  1  0  0  0
  2 23  1  0  0  0  0
  3 12  2  0  0  0  0
  4 23  2  0  0  0  0
  5 32  2  0  0  0  0
 26  6  1  6  0  0  0
  6 32  1  0  0  0  0
  6 78  1  0  0  0  0
  7  8  1  0  0  0  0
  7 10  1  1  0  0  0
  7 12  1  0  0  0  0
  7 33  1  0  0  0  0
  8  9  1  6  0  0  0
  8 34  1  0  0  0  0
  9 11  1  0  0  0  0
  9 35  1  0  0  0  0
  9 36  1  0  0  0  0
 10 13  1  0  0  0  0
 10 37  1  0  0  0  0
 10 38  1  0  0  0  0
 11 14  1  0  0  0  0
 11 39  1  0  0  0  0
 13 15  1  0  0  0  0
 13 40  1  0  0  0  0
 13 41  1  0  0  0  0
 14 16  1  0  0  0  0
 14 42  1  0  0  0  0
 14 43  1  0  0  0  0
 15 17  1  0  0  0  0
 15 44  1  0  0  0  0
 15 45  1  0  0  0  0
 16 19  1  0  0  0  0
 16 46  1  0  0  0  0
 16 47  1  0  0  0  0
 17 18  1  0  0  0  0
 17 48  1  0  0  0  0
 17 49  1  0  0  0  0
 18 20  1  0  0  0  0
 18 50  1  0  0  0  0
 18 51  1  0  0  0  0
 19 21  1  0  0  0  0
 19 52  1  0  0  0  0
 19 53  1  0  0  0  0
 20 22  1  0  0  0  0
 20 54  1  0  0  0  0
 20 55  1  0  0  0  0
 21 25  1  0  0  0  0
 21 56  1  0  0  0  0
 21 57  1  0  0  0  0
 22 24  1  0  0  0  0
 22 58  1  0  0  0  0
 22 59  1  0  0  0  0
 23 26  1  0  0  0  0
 24 28  1  0  0  0  0
 24 29  1  0  0  0  0
 24 60  1  0  0  0  0
 25 27  1  0  0  0  0
 25 61  1  0  0  0  0
 25 62  1  0  0  0  0
 26 30  1  0  0  0  0
 26 63  1  0  0  0  0
 27 31  1  0  0  0  0
 27 64  1  0  0  0  0
 27 65  1  0  0  0  0
 28 66  1  0  0  0  0
 28 67  1  0  0  0  0
 28 68  1  0  0  0  0
 29 69  1  0  0  0  0
 29 70  1  0  0  0  0
 29 71  1  0  0  0  0
 30 72  1  0  0  0  0
 30 73  1  0  0  0  0
 30 74  1  0  0  0  0
 31 75  1  0  0  0  0
 31 76  1  0  0  0  0
 31 77  1  0  0  0  0
 32 79  1  0  0  0  0
M  END
> <PUBCHEM_COMPOUND_CID>
9933639

> <PUBCHEM_COMPOUND_CANONICALIZED>
1

> <PUBCHEM_CACTVS_COMPLEXITY>
536

> <PUBCHEM_CACTVS_HBOND_ACCEPTOR>
5

> <PUBCHEM_CACTVS_HBOND_DONOR>
1

> <PUBCHEM_CACTVS_ROTATABLE_BOND>
20

> <PUBCHEM_CACTVS_SUBSKEYS>
AAADcfB6OAAAAAAAAAAAAAAAAABIAAAAAAAAAAAAAAAAAAAAAAAAHgAQAAAADTzhgAYCCALABAAIAACQmAAAAAAAAAAAAIGIAAACABYAACADAAAFNgAQAAGI7OzOAAAAAAAAAAAAAAAAAAAAAAAAAAAAAA==

> <PUBCHEM_IUPAC_OPENEYE_NAME>
[(1S)-1-[[(2S,3S)-3-(8-methylnonyl)-4-oxo-oxetan-2-yl]methyl]octyl] (2S)-2-formamidopropanoate

> <PUBCHEM_IUPAC_CAS_NAME>
(2S)-2-formamidopropanoic acid [(2S)-1-[(2S,3S)-3-(8-methylnonyl)-4-oxo-2-oxetanyl]nonan-2-yl] ester

> <PUBCHEM_IUPAC_NAME_MARKUP>
[(2<I>S</I>)-1-[(2<I>S</I>,3<I>S</I>)-3-(8-methylnonyl)-4-oxooxetan-2-yl]nonan-2-yl] (2<I>S</I>)-2-formamidopropanoate

> <PUBCHEM_IUPAC_NAME>
[(2S)-1-[(2S,3S)-3-(8-methylnonyl)-4-oxooxetan-2-yl]nonan-2-yl] (2S)-2-formamidopropanoate

> <PUBCHEM_IUPAC_SYSTEMATIC_NAME>
[(2S)-1-[(2S,3S)-3-(8-methylnonyl)-4-oxidanylidene-oxetan-2-yl]nonan-2-yl] (2S)-2-formamidopropanoate

> <PUBCHEM_IUPAC_TRADITIONAL_NAME>
(2S)-2-formamidopropionic acid [(1S)-1-[[(2S,3S)-4-keto-3-(8-methylnonyl)oxetan-2-yl]methyl]octyl] ester

> <PUBCHEM_IUPAC_INCHI>
InChI=1S/C26H47NO5/c1-5-6-7-9-13-16-22(31-25(29)21(4)27-19-28)18-24-23(26(30)32-24)17-14-11-8-10-12-15-20(2)3/h19-24H,5-18H2,1-4H3,(H,27,28)/t21-,22-,23-,24-/m0/s1

> <PUBCHEM_IUPAC_INCHIKEY>
LRDWQJMXGXVRRG-ZJZGAYNASA-N

> <PUBCHEM_XLOGP3_AA>
8.4

> <PUBCHEM_EXACT_MASS>
453.34542360

> <PUBCHEM_MOLECULAR_FORMULA>
C26H47NO5

> <PUBCHEM_MOLECULAR_WEIGHT>
453.7

> <PUBCHEM_OPENEYE_CAN_SMILES>
CCCCCCCC(CC1C(C(=O)O1)CCCCCCCC(C)C)OC(=O)C(C)NC=O

> <PUBCHEM_OPENEYE_ISO_SMILES>
CCCCCCC[C@@H](C[C@H]1[C@@H](C(=O)O1)CCCCCCCC(C)C)OC(=O)[C@H](C)NC=O

> <PUBCHEM_CACTVS_TPSA>
81.7

> <PUBCHEM_MONOISOTOPIC_WEIGHT>
453.34542360

> <PUBCHEM_TOTAL_CHARGE>
0

> <PUBCHEM_HEAVY_ATOM_COUNT>
32

> <PUBCHEM_ATOM_DEF_STEREO_COUNT>
4

> <PUBCHEM_ATOM_UDEF_STEREO_COUNT>
0

> <PUBCHEM_BOND_DEF_STEREO_COUNT>
0

> <PUBCHEM_BOND_UDEF_STEREO_COUNT>
0

> <PUBCHEM_ISOTOPIC_ATOM_COUNT>
0

> <PUBCHEM_COMPONENT_COUNT>
1

> <PUBCHEM_CACTVS_TAUTO_COUNT>
-1

> <PUBCHEM_COORDINATE_TYPE>
1
5
255

> <PUBCHEM_BONDANNOTATIONS>
11  2  5
26  6  6
7  10  5
8  9  6

$$$$
