101883476
  -OEChem-02212200222D

 58 58  0     1  0  0  0  0  0999 V2000
    5.4641   -2.3450    0.0000 O   0  0  0  0  0  0  0  0  0  0  0  0
    8.0622    2.1550    0.0000 O   0  0  0  0  0  0  0  0  0  0  0  0
    2.8660   -4.8450    0.0000 O   0  0  0  0  0  0  0  0  0  0  0  0
    9.7942    2.1550    0.0000 O   0  0  0  0  0  0  0  0  0  0  0  0
    8.0622    5.1550    0.0000 O   0  0  0  0  0  0  0  0  0  0  0  0
    4.5981   -0.8450    0.0000 C   0  0  0  0  0  0  0  0  0  0  0  0
    4.5981   -1.8450    0.0000 C   0  0  3  0  0  0  0  0  0  0  0  0
    5.4641   -0.3450    0.0000 C   0  0  0  0  0  0  0  0  0  0  0  0
    3.7320   -2.3450    0.0000 C   0  0  0  0  0  0  0  0  0  0  0  0
    5.4641    0.6550    0.0000 C   0  0  0  0  0  0  0  0  0  0  0  0
    6.3301    1.1550    0.0000 C   0  0  0  0  0  0  0  0  0  0  0  0
    6.3301    2.1550    0.0000 C   0  0  0  0  0  0  0  0  0  0  0  0
    3.7320   -3.3450    0.0000 C   0  0  0  0  0  0  0  0  0  0  0  0
    2.8660   -1.8450    0.0000 C   0  0  0  0  0  0  0  0  0  0  0  0
    4.5981    1.1550    0.0000 C   0  0  0  0  0  0  0  0  0  0  0  0
    7.1962    2.6550    0.0000 C   0  0  0  0  0  0  0  0  0  0  0  0
    2.8660   -3.8450    0.0000 C   0  0  3  0  0  0  0  0  0  0  0  0
    7.1962    3.6550    0.0000 C   0  0  0  0  0  0  0  0  0  0  0  0
    5.4641   -3.3450    0.0000 C   0  0  0  0  0  0  0  0  0  0  0  0
    8.0622    4.1550    0.0000 C   0  0  0  0  0  0  0  0  0  0  0  0
    2.0000   -3.3450    0.0000 C   0  0  0  0  0  0  0  0  0  0  0  0
    8.9282    3.6550    0.0000 C   0  0  0  0  0  0  0  0  0  0  0  0
    8.9282    2.6550    0.0000 C   0  0  0  0  0  0  0  0  0  0  0  0
    6.3301    4.1550    0.0000 C   0  0  0  0  0  0  0  0  0  0  0  0
    9.7942    4.1550    0.0000 C   0  0  0  0  0  0  0  0  0  0  0  0
    9.7942    1.1550    0.0000 C   0  0  0  0  0  0  0  0  0  0  0  0
    4.3860   -0.2624    0.0000 H   0  0  0  0  0  0  0  0  0  0  0  0
    3.9875   -0.9527    0.0000 H   0  0  0  0  0  0  0  0  0  0  0  0
    4.5981   -2.4650    0.0000 H   0  0  0  0  0  0  0  0  0  0  0  0
    5.6762   -0.9276    0.0000 H   0  0  0  0  0  0  0  0  0  0  0  0
    6.0747   -0.2373    0.0000 H   0  0  0  0  0  0  0  0  0  0  0  0
    6.8671    0.8450    0.0000 H   0  0  0  0  0  0  0  0  0  0  0  0
    6.1181    2.7376    0.0000 H   0  0  0  0  0  0  0  0  0  0  0  0
    5.7196    2.0473    0.0000 H   0  0  0  0  0  0  0  0  0  0  0  0
    4.2690   -3.6550    0.0000 H   0  0  0  0  0  0  0  0  0  0  0  0
    3.1760   -1.3081    0.0000 H   0  0  0  0  0  0  0  0  0  0  0  0
    2.3291   -1.5350    0.0000 H   0  0  0  0  0  0  0  0  0  0  0  0
    2.5560   -2.3819    0.0000 H   0  0  0  0  0  0  0  0  0  0  0  0
    4.9081    1.6919    0.0000 H   0  0  0  0  0  0  0  0  0  0  0  0
    4.0611    1.4650    0.0000 H   0  0  0  0  0  0  0  0  0  0  0  0
    4.2881    0.6181    0.0000 H   0  0  0  0  0  0  0  0  0  0  0  0
    3.4030   -4.1550    0.0000 H   0  0  0  0  0  0  0  0  0  0  0  0
    4.8441   -3.3450    0.0000 H   0  0  0  0  0  0  0  0  0  0  0  0
    5.4641   -3.9650    0.0000 H   0  0  0  0  0  0  0  0  0  0  0  0
    6.0841   -3.3450    0.0000 H   0  0  0  0  0  0  0  0  0  0  0  0
    2.3100   -2.8081    0.0000 H   0  0  0  0  0  0  0  0  0  0  0  0
    1.4631   -3.0350    0.0000 H   0  0  0  0  0  0  0  0  0  0  0  0
    1.6900   -3.8819    0.0000 H   0  0  0  0  0  0  0  0  0  0  0  0
    6.6401    4.6919    0.0000 H   0  0  0  0  0  0  0  0  0  0  0  0
    5.7932    4.4650    0.0000 H   0  0  0  0  0  0  0  0  0  0  0  0
    6.0201    3.6181    0.0000 H   0  0  0  0  0  0  0  0  0  0  0  0
   10.1042    3.6181    0.0000 H   0  0  0  0  0  0  0  0  0  0  0  0
   10.3312    4.4650    0.0000 H   0  0  0  0  0  0  0  0  0  0  0  0
    9.4842    4.6919    0.0000 H   0  0  0  0  0  0  0  0  0  0  0  0
    2.3291   -5.1550    0.0000 H   0  0  0  0  0  0  0  0  0  0  0  0
    9.1742    1.1550    0.0000 H   0  0  0  0  0  0  0  0  0  0  0  0
    9.7942    0.5350    0.0000 H   0  0  0  0  0  0  0  0  0  0  0  0
   10.4142    1.1550    0.0000 H   0  0  0  0  0  0  0  0  0  0  0  0
  1  7  1  0  0  0  0
  1 19  1  0  0  0  0
  2 16  1  0  0  0  0
  2 23  1  0  0  0  0
  3 17  1  0  0  0  0
  3 55  1  0  0  0  0
  4 23  1  0  0  0  0
  4 26  1  0  0  0  0
  5 20  2  0  0  0  0
  6  7  1  0  0  0  0
  6  8  1  0  0  0  0
  6 27  1  0  0  0  0
  6 28  1  0  0  0  0
  7  9  1  0  0  0  0
  7 29  1  0  0  0  0
  8 10  1  0  0  0  0
  8 30  1  0  0  0  0
  8 31  1  0  0  0  0
  9 13  2  0  0  0  0
  9 14  1  0  0  0  0
 10 11  2  0  0  0  0
 10 15  1  0  0  0  0
 11 12  1  0  0  0  0
 11 32  1  0  0  0  0
 12 16  1  0  0  0  0
 12 33  1  0  0  0  0
 12 34  1  0  0  0  0
 13 17  1  0  0  0  0
 13 35  1  0  0  0  0
 14 36  1  0  0  0  0
 14 37  1  0  0  0  0
 14 38  1  0  0  0  0
 15 39  1  0  0  0  0
 15 40  1  0  0  0  0
 15 41  1  0  0  0  0
 16 18  2  0  0  0  0
 17 21  1  0  0  0  0
 17 42  1  0  0  0  0
 18 20  1  0  0  0  0
 18 24  1  0  0  0  0
 19 43  1  0  0  0  0
 19 44  1  0  0  0  0
 19 45  1  0  0  0  0
 20 22  1  0  0  0  0
 21 46  1  0  0  0  0
 21 47  1  0  0  0  0
 21 48  1  0  0  0  0
 22 23  2  0  0  0  0
 22 25  1  0  0  0  0
 24 49  1  0  0  0  0
 24 50  1  0  0  0  0
 24 51  1  0  0  0  0
 25 52  1  0  0  0  0
 25 53  1  0  0  0  0
 25 54  1  0  0  0  0
 26 56  1  0  0  0  0
 26 57  1  0  0  0  0
 26 58  1  0  0  0  0
M  END
> <PUBCHEM_COMPOUND_CID>
101883476

> <PUBCHEM_COMPOUND_CANONICALIZED>
1

> <PUBCHEM_CACTVS_COMPLEXITY>
637

> <PUBCHEM_CACTVS_HBOND_ACCEPTOR>
5

> <PUBCHEM_CACTVS_HBOND_DONOR>
1

> <PUBCHEM_CACTVS_ROTATABLE_BOND>
9

> <PUBCHEM_CACTVS_SUBSKEYS>
AAADcfB4OAAAAAAAAAAAAAAAAAAAAAAAAAAgAAAAAAAAAAAAAAAAGgAACAAADBSggAICCAAABgCIAqBSAAAACAAgIAAACAEAAEgQFAIAIQAgEAAEwAAMMQOAgAAAAAAAAAAAAAAAAAAAAAAAAAAAAAAAAA==

> <PUBCHEM_IUPAC_OPENEYE_NAME>
2-[(2E,7E)-9-hydroxy-6-methoxy-3,7-dimethyl-deca-2,7-dienyl]-6-methoxy-3,5-dimethyl-pyran-4-one

> <PUBCHEM_IUPAC_CAS_NAME>
2-[(2E,7E)-9-hydroxy-6-methoxy-3,7-dimethyldeca-2,7-dienyl]-6-methoxy-3,5-dimethyl-4-pyranone

> <PUBCHEM_IUPAC_NAME_MARKUP>
2-[(2<I>E</I>,7<I>E</I>)-9-hydroxy-6-methoxy-3,7-dimethyldeca-2,7-dienyl]-6-methoxy-3,5-dimethylpyran-4-one

> <PUBCHEM_IUPAC_NAME>
2-[(2E,7E)-9-hydroxy-6-methoxy-3,7-dimethyldeca-2,7-dienyl]-6-methoxy-3,5-dimethylpyran-4-one

> <PUBCHEM_IUPAC_SYSTEMATIC_NAME>
2-methoxy-6-[(2E,7E)-6-methoxy-3,7-dimethyl-9-oxidanyl-deca-2,7-dienyl]-3,5-dimethyl-pyran-4-one

> <PUBCHEM_IUPAC_TRADITIONAL_NAME>
2-[(2E,7E)-9-hydroxy-6-methoxy-3,7-dimethyl-deca-2,7-dienyl]-6-methoxy-3,5-dimethyl-pyran-4-one

> <PUBCHEM_IUPAC_INCHI>
InChI=1S/C21H32O5/c1-13(8-10-18(24-6)14(2)12-15(3)22)9-11-19-16(4)20(23)17(5)21(25-7)26-19/h9,12,15,18,22H,8,10-11H2,1-7H3/b13-9+,14-12+

> <PUBCHEM_IUPAC_INCHIKEY>
JRYSFTQQWLHNHH-IHJNGOQESA-N

> <PUBCHEM_XLOGP3_AA>
3.8

> <PUBCHEM_EXACT_MASS>
364.22497412

> <PUBCHEM_MOLECULAR_FORMULA>
C21H32O5

> <PUBCHEM_MOLECULAR_WEIGHT>
364.5

> <PUBCHEM_OPENEYE_CAN_SMILES>
CC1=C(OC(=C(C1=O)C)OC)CC=C(C)CCC(C(=CC(C)O)C)OC

> <PUBCHEM_OPENEYE_ISO_SMILES>
CC1=C(OC(=C(C1=O)C)OC)C/C=C(\C)/CCC(/C(=C/C(C)O)/C)OC

> <PUBCHEM_CACTVS_TPSA>
65

> <PUBCHEM_MONOISOTOPIC_WEIGHT>
364.22497412

> <PUBCHEM_TOTAL_CHARGE>
0

> <PUBCHEM_HEAVY_ATOM_COUNT>
26

> <PUBCHEM_ATOM_DEF_STEREO_COUNT>
0

> <PUBCHEM_ATOM_UDEF_STEREO_COUNT>
2

> <PUBCHEM_BOND_DEF_STEREO_COUNT>
2

> <PUBCHEM_BOND_UDEF_STEREO_COUNT>
0

> <PUBCHEM_ISOTOPIC_ATOM_COUNT>
0

> <PUBCHEM_COMPONENT_COUNT>
1

> <PUBCHEM_CACTVS_TAUTO_COUNT>
-1

> <PUBCHEM_COORDINATE_TYPE>
1
5
255

> <PUBCHEM_BONDANNOTATIONS>
16  18  8
18  20  8
2  16  8
2  23  8
20  22  8
22  23  8
17  3  3
7  6  3

$$$$
