129826103
  -OEChem-02212201232D

 78 80  0     0  0  0  0  0  0999 V2000
    4.6660    0.7277    0.0000 O   0  0  0  0  0  0  0  0  0  0  0  0
    6.4144    1.7623    0.0000 O   0  0  0  0  0  0  0  0  0  0  0  0
    4.6660   -2.2723    0.0000 O   0  0  0  0  0  0  0  0  0  0  0  0
   14.2602    0.2752    0.0000 C   0  0  0  0  0  0  0  0  0  0  0  0
   13.3923    0.7719    0.0000 C   0  0  0  0  0  0  0  0  0  0  0  0
   15.1243    0.7786    0.0000 C   0  0  0  0  0  0  0  0  0  0  0  0
   12.5282    0.2686    0.0000 C   0  0  0  0  0  0  0  0  0  0  0  0
   15.9923    0.2819    0.0000 C   0  0  0  0  0  0  0  0  0  0  0  0
   11.6602    0.7652    0.0000 C   0  0  0  0  0  0  0  0  0  0  0  0
   16.8563    0.7852    0.0000 C   0  0  0  0  0  0  0  0  0  0  0  0
   10.7961    0.2619    0.0000 C   0  0  0  0  0  0  0  0  0  0  0  0
   17.7243    0.2886    0.0000 C   0  0  0  0  0  0  0  0  0  0  0  0
    9.9282    0.7585    0.0000 C   0  0  0  0  0  0  0  0  0  0  0  0
   18.5884    0.7919    0.0000 C   0  0  0  0  0  0  0  0  0  0  0  0
    9.0641    0.2552    0.0000 C   0  0  0  0  0  0  0  0  0  0  0  0
   19.4563    0.2953    0.0000 C   0  0  0  0  0  0  0  0  0  0  0  0
    8.1962    0.7519    0.0000 C   0  0  0  0  0  0  0  0  0  0  0  0
   20.3204    0.7986    0.0000 C   0  0  0  0  0  0  0  0  0  0  0  0
    7.3321    0.2485    0.0000 C   0  0  0  0  0  0  0  0  0  0  0  0
   21.1884    0.3019    0.0000 C   0  0  0  0  0  0  0  0  0  0  0  0
    6.4260    0.7624    0.0000 C   0  0  0  0  0  0  0  0  0  0  0  0
    7.3321   -0.7931    0.0000 C   0  0  0  0  0  0  0  0  0  0  0  0
    5.5321    0.2277    0.0000 C   0  0  0  0  0  0  0  0  0  0  0  0
    5.5321   -0.7723    0.0000 C   0  0  0  0  0  0  0  0  0  0  0  0
   22.0525    0.8053    0.0000 C   0  0  0  0  0  0  0  0  0  0  0  0
    6.4260   -1.3070    0.0000 C   0  0  0  0  0  0  0  0  0  0  0  0
    4.6660   -1.2723    0.0000 C   0  0  0  0  0  0  0  0  0  0  0  0
    3.8000   -0.7723    0.0000 C   0  0  0  0  0  0  0  0  0  0  0  0
    3.8000    0.2277    0.0000 C   0  0  0  0  0  0  0  0  0  0  0  0
    2.9061   -1.3070    0.0000 C   0  0  0  0  0  0  0  0  0  0  0  0
    2.9061    0.7624    0.0000 C   0  0  0  0  0  0  0  0  0  0  0  0
    7.2746    2.2723    0.0000 C   0  0  0  0  0  0  0  0  0  0  0  0
    2.0000   -0.7931    0.0000 C   0  0  0  0  0  0  0  0  0  0  0  0
    2.0000    0.2485    0.0000 C   0  0  0  0  0  0  0  0  0  0  0  0
   13.8635   -0.2012    0.0000 H   0  0  0  0  0  0  0  0  0  0  0  0
   14.6606   -0.1982    0.0000 H   0  0  0  0  0  0  0  0  0  0  0  0
   13.7890    1.2484    0.0000 H   0  0  0  0  0  0  0  0  0  0  0  0
   12.9919    1.2453    0.0000 H   0  0  0  0  0  0  0  0  0  0  0  0
   15.5210    1.2550    0.0000 H   0  0  0  0  0  0  0  0  0  0  0  0
   14.7240    1.2520    0.0000 H   0  0  0  0  0  0  0  0  0  0  0  0
   12.1315   -0.2079    0.0000 H   0  0  0  0  0  0  0  0  0  0  0  0
   12.9285   -0.2049    0.0000 H   0  0  0  0  0  0  0  0  0  0  0  0
   15.5956   -0.1946    0.0000 H   0  0  0  0  0  0  0  0  0  0  0  0
   16.3926   -0.1915    0.0000 H   0  0  0  0  0  0  0  0  0  0  0  0
   12.0569    1.2417    0.0000 H   0  0  0  0  0  0  0  0  0  0  0  0
   11.2599    1.2386    0.0000 H   0  0  0  0  0  0  0  0  0  0  0  0
   17.2530    1.2617    0.0000 H   0  0  0  0  0  0  0  0  0  0  0  0
   16.4560    1.2586    0.0000 H   0  0  0  0  0  0  0  0  0  0  0  0
   10.3995   -0.2146    0.0000 H   0  0  0  0  0  0  0  0  0  0  0  0
   11.1965   -0.2115    0.0000 H   0  0  0  0  0  0  0  0  0  0  0  0
   17.3276   -0.1879    0.0000 H   0  0  0  0  0  0  0  0  0  0  0  0
   18.1247   -0.1848    0.0000 H   0  0  0  0  0  0  0  0  0  0  0  0
   10.3249    1.2350    0.0000 H   0  0  0  0  0  0  0  0  0  0  0  0
    9.5278    1.2320    0.0000 H   0  0  0  0  0  0  0  0  0  0  0  0
   18.9851    1.2684    0.0000 H   0  0  0  0  0  0  0  0  0  0  0  0
   18.1880    1.2653    0.0000 H   0  0  0  0  0  0  0  0  0  0  0  0
    8.6674   -0.2213    0.0000 H   0  0  0  0  0  0  0  0  0  0  0  0
    9.4645   -0.2182    0.0000 H   0  0  0  0  0  0  0  0  0  0  0  0
   19.0596   -0.1812    0.0000 H   0  0  0  0  0  0  0  0  0  0  0  0
   19.8567   -0.1781    0.0000 H   0  0  0  0  0  0  0  0  0  0  0  0
    8.5929    1.2283    0.0000 H   0  0  0  0  0  0  0  0  0  0  0  0
    7.7958    1.2253    0.0000 H   0  0  0  0  0  0  0  0  0  0  0  0
   20.7171    1.2751    0.0000 H   0  0  0  0  0  0  0  0  0  0  0  0
   19.9201    1.2720    0.0000 H   0  0  0  0  0  0  0  0  0  0  0  0
   20.7917   -0.1745    0.0000 H   0  0  0  0  0  0  0  0  0  0  0  0
   21.5887   -0.1715    0.0000 H   0  0  0  0  0  0  0  0  0  0  0  0
    7.8678   -1.1052    0.0000 H   0  0  0  0  0  0  0  0  0  0  0  0
   22.3645    0.2695    0.0000 H   0  0  0  0  0  0  0  0  0  0  0  0
   22.5882    1.1173    0.0000 H   0  0  0  0  0  0  0  0  0  0  0  0
   21.7404    1.3410    0.0000 H   0  0  0  0  0  0  0  0  0  0  0  0
    6.4188   -1.9269    0.0000 H   0  0  0  0  0  0  0  0  0  0  0  0
    2.9132   -1.9269    0.0000 H   0  0  0  0  0  0  0  0  0  0  0  0
    2.9132    1.3823    0.0000 H   0  0  0  0  0  0  0  0  0  0  0  0
    7.5908    1.7390    0.0000 H   0  0  0  0  0  0  0  0  0  0  0  0
    7.8079    2.5885    0.0000 H   0  0  0  0  0  0  0  0  0  0  0  0
    6.9584    2.8056    0.0000 H   0  0  0  0  0  0  0  0  0  0  0  0
    1.4643   -1.1052    0.0000 H   0  0  0  0  0  0  0  0  0  0  0  0
    1.4643    0.5606    0.0000 H   0  0  0  0  0  0  0  0  0  0  0  0
  1 23  1  0  0  0  0
  1 29  1  0  0  0  0
  2 21  1  0  0  0  0
  2 32  1  0  0  0  0
  3 27  2  0  0  0  0
  4  5  1  0  0  0  0
  4  6  1  0  0  0  0
  4 35  1  0  0  0  0
  4 36  1  0  0  0  0
  5  7  1  0  0  0  0
  5 37  1  0  0  0  0
  5 38  1  0  0  0  0
  6  8  1  0  0  0  0
  6 39  1  0  0  0  0
  6 40  1  0  0  0  0
  7  9  1  0  0  0  0
  7 41  1  0  0  0  0
  7 42  1  0  0  0  0
  8 10  1  0  0  0  0
  8 43  1  0  0  0  0
  8 44  1  0  0  0  0
  9 11  1  0  0  0  0
  9 45  1  0  0  0  0
  9 46  1  0  0  0  0
 10 12  1  0  0  0  0
 10 47  1  0  0  0  0
 10 48  1  0  0  0  0
 11 13  1  0  0  0  0
 11 49  1  0  0  0  0
 11 50  1  0  0  0  0
 12 14  1  0  0  0  0
 12 51  1  0  0  0  0
 12 52  1  0  0  0  0
 13 15  1  0  0  0  0
 13 53  1  0  0  0  0
 13 54  1  0  0  0  0
 14 16  1  0  0  0  0
 14 55  1  0  0  0  0
 14 56  1  0  0  0  0
 15 17  1  0  0  0  0
 15 57  1  0  0  0  0
 15 58  1  0  0  0  0
 16 18  1  0  0  0  0
 16 59  1  0  0  0  0
 16 60  1  0  0  0  0
 17 19  1  0  0  0  0
 17 61  1  0  0  0  0
 17 62  1  0  0  0  0
 18 20  1  0  0  0  0
 18 63  1  0  0  0  0
 18 64  1  0  0  0  0
 19 21  2  0  0  0  0
 19 22  1  0  0  0  0
 20 25  1  0  0  0  0
 20 65  1  0  0  0  0
 20 66  1  0  0  0  0
 21 23  1  0  0  0  0
 22 26  2  0  0  0  0
 22 67  1  0  0  0  0
 23 24  2  0  0  0  0
 24 26  1  0  0  0  0
 24 27  1  0  0  0  0
 25 68  1  0  0  0  0
 25 69  1  0  0  0  0
 25 70  1  0  0  0  0
 26 71  1  0  0  0  0
 27 28  1  0  0  0  0
 28 29  1  0  0  0  0
 28 30  2  0  0  0  0
 29 31  2  0  0  0  0
 30 33  1  0  0  0  0
 30 72  1  0  0  0  0
 31 34  1  0  0  0  0
 31 73  1  0  0  0  0
 32 74  1  0  0  0  0
 32 75  1  0  0  0  0
 32 76  1  0  0  0  0
 33 34  2  0  0  0  0
 33 77  1  0  0  0  0
 34 78  1  0  0  0  0
M  END
> <PUBCHEM_COMPOUND_CID>
129826103

> <PUBCHEM_COMPOUND_CANONICALIZED>
1

> <PUBCHEM_CACTVS_COMPLEXITY>
547

> <PUBCHEM_CACTVS_HBOND_ACCEPTOR>
3

> <PUBCHEM_CACTVS_HBOND_DONOR>
0

> <PUBCHEM_CACTVS_ROTATABLE_BOND>
17

> <PUBCHEM_CACTVS_SUBSKEYS>
AAADcfB4MAAAAAAAAAAAAAAAAAAAAAAAAAA0YIAAAAAAAACRQAAAGgAAAAAADASAmAIyBoAABACIAqBSAAACCAAkIAAIiAEGiMgNJjaENRqCOWKk4BEKqYeKyPCOQAABAAAIQACAAAIAABCAAAAAAAAAAA==

> <PUBCHEM_IUPAC_OPENEYE_NAME>
3-heptadecyl-4-methoxy-xanthen-9-one

> <PUBCHEM_IUPAC_CAS_NAME>
3-heptadecyl-4-methoxy-9-xanthenone

> <PUBCHEM_IUPAC_NAME_MARKUP>
3-heptadecyl-4-methoxyxanthen-9-one

> <PUBCHEM_IUPAC_NAME>
3-heptadecyl-4-methoxyxanthen-9-one

> <PUBCHEM_IUPAC_SYSTEMATIC_NAME>
3-heptadecyl-4-methoxy-xanthen-9-one

> <PUBCHEM_IUPAC_TRADITIONAL_NAME>
3-heptadecyl-4-methoxy-xanthone

> <PUBCHEM_IUPAC_INCHI>
InChI=1S/C31H44O3/c1-3-4-5-6-7-8-9-10-11-12-13-14-15-16-17-20-25-23-24-27-29(32)26-21-18-19-22-28(26)34-31(27)30(25)33-2/h18-19,21-24H,3-17,20H2,1-2H3

> <PUBCHEM_IUPAC_INCHIKEY>
LZEKDUYFZGDDMP-UHFFFAOYSA-N

> <PUBCHEM_XLOGP3_AA>
11.9

> <PUBCHEM_EXACT_MASS>
464.32904526

> <PUBCHEM_MOLECULAR_FORMULA>
C31H44O3

> <PUBCHEM_MOLECULAR_WEIGHT>
464.7

> <PUBCHEM_OPENEYE_CAN_SMILES>
CCCCCCCCCCCCCCCCCC1=C(C2=C(C=C1)C(=O)C3=CC=CC=C3O2)OC

> <PUBCHEM_OPENEYE_ISO_SMILES>
CCCCCCCCCCCCCCCCCC1=C(C2=C(C=C1)C(=O)C3=CC=CC=C3O2)OC

> <PUBCHEM_CACTVS_TPSA>
35.5

> <PUBCHEM_MONOISOTOPIC_WEIGHT>
464.32904526

> <PUBCHEM_TOTAL_CHARGE>
0

> <PUBCHEM_HEAVY_ATOM_COUNT>
34

> <PUBCHEM_ATOM_DEF_STEREO_COUNT>
0

> <PUBCHEM_ATOM_UDEF_STEREO_COUNT>
0

> <PUBCHEM_BOND_DEF_STEREO_COUNT>
0

> <PUBCHEM_BOND_UDEF_STEREO_COUNT>
0

> <PUBCHEM_ISOTOPIC_ATOM_COUNT>
0

> <PUBCHEM_COMPONENT_COUNT>
1

> <PUBCHEM_CACTVS_TAUTO_COUNT>
-1

> <PUBCHEM_COORDINATE_TYPE>
1
5
255

> <PUBCHEM_BONDANNOTATIONS>
1  23  8
1  29  8
19  21  8
19  22  8
21  23  8
22  26  8
23  24  8
24  26  8
24  27  8
27  28  8
28  29  8
28  30  8
29  31  8
30  33  8
31  34  8
33  34  8

$$$$
