11273547
  -OEChem-02212201582D

101103  0     1  0  0  0  0  0999 V2000
    6.0016   -4.3301    0.0000 O   0  0  0  0  0  0  0  0  0  0  0  0
    2.5369   -5.3301    0.0000 O   0  0  0  0  0  0  0  0  0  0  0  0
    7.1350   -3.8301    0.0000 O   0  0  0  0  0  0  0  0  0  0  0  0
   20.1350    2.0981    0.0000 O   0  0  0  0  0  0  0  0  0  0  0  0
   22.6350    3.9641    0.0000 O   0  0  0  0  0  0  0  0  0  0  0  0
    5.1350   -3.8301    0.0000 C   0  0  2  0  0  0  0  0  0  0  0  0
    5.1350   -4.8301    0.0000 C   0  0  1  0  0  0  0  0  0  0  0  0
    4.2690   -3.3301    0.0000 C   0  0  0  0  0  0  0  0  0  0  0  0
    4.2690   -5.3301    0.0000 C   0  0  0  0  0  0  0  0  0  0  0  0
    3.4030   -3.8301    0.0000 C   0  0  0  0  0  0  0  0  0  0  0  0
    3.4030   -4.8301    0.0000 C   0  0  2  0  0  0  0  0  0  0  0  0
    5.6350   -2.9641    0.0000 C   0  0  0  0  0  0  0  0  0  0  0  0
    5.1350   -5.8301    0.0000 C   0  0  0  0  0  0  0  0  0  0  0  0
    3.7690   -2.4641    0.0000 C   0  0  0  0  0  0  0  0  0  0  0  0
    4.7690   -2.4641    0.0000 C   0  0  0  0  0  0  0  0  0  0  0  0
    6.6350   -2.9641    0.0000 C   0  0  0  0  0  0  0  0  0  0  0  0
    7.1350   -2.0981    0.0000 C   0  0  0  0  0  0  0  0  0  0  0  0
    6.6350   -1.2320    0.0000 C   0  0  0  0  0  0  0  0  0  0  0  0
    8.1350   -2.0981    0.0000 C   0  0  0  0  0  0  0  0  0  0  0  0
    8.6350   -1.2320    0.0000 C   0  0  0  0  0  0  0  0  0  0  0  0
   20.1350    4.8301    0.0000 C   0  0  0  0  0  0  0  0  0  0  0  0
   20.1350    3.0981    0.0000 C   0  0  2  0  0  0  0  0  0  0  0  0
   21.1350    4.8301    0.0000 C   0  0  0  0  0  0  0  0  0  0  0  0
    9.6350   -1.2320    0.0000 C   0  0  0  0  0  0  0  0  0  0  0  0
   21.6350    3.9641    0.0000 C   0  0  1  0  0  0  0  0  0  0  0  0
   21.1350    3.0981    0.0000 C   0  0  0  0  0  0  0  0  0  0  0  0
   19.6350    3.9641    0.0000 C   0  0  0  0  0  0  0  0  0  0  0  0
   20.1350    5.8301    0.0000 C   0  0  0  0  0  0  0  0  0  0  0  0
   19.2690    5.3301    0.0000 C   0  0  0  0  0  0  0  0  0  0  0  0
   19.2690    2.5981    0.0000 C   0  0  0  0  0  0  0  0  0  0  0  0
   10.1350   -0.3660    0.0000 C   0  0  0  0  0  0  0  0  0  0  0  0
   18.6350    3.9641    0.0000 C   0  0  0  0  0  0  0  0  0  0  0  0
    9.6350    0.5000    0.0000 C   0  0  0  0  0  0  0  0  0  0  0  0
   11.1350   -0.3660    0.0000 C   0  0  0  0  0  0  0  0  0  0  0  0
   17.6350    3.9641    0.0000 C   0  0  0  0  0  0  0  0  0  0  0  0
   17.1350    3.0981    0.0000 C   0  0  0  0  0  0  0  0  0  0  0  0
   11.6350    0.5000    0.0000 C   0  0  0  0  0  0  0  0  0  0  0  0
   17.6350    2.2320    0.0000 C   0  0  0  0  0  0  0  0  0  0  0  0
   16.1350    3.0981    0.0000 C   0  0  0  0  0  0  0  0  0  0  0  0
   12.6350    0.5000    0.0000 C   0  0  0  0  0  0  0  0  0  0  0  0
   15.6350    2.2320    0.0000 C   0  0  0  0  0  0  0  0  0  0  0  0
   13.1350    1.3660    0.0000 C   0  0  0  0  0  0  0  0  0  0  0  0
   14.6350    2.2320    0.0000 C   0  0  0  0  0  0  0  0  0  0  0  0
   14.1350    1.3660    0.0000 C   0  0  0  0  0  0  0  0  0  0  0  0
   14.6350    0.5000    0.0000 C   0  0  0  0  0  0  0  0  0  0  0  0
    3.8705   -5.8051    0.0000 H   0  0  0  0  0  0  0  0  0  0  0  0
    4.6675   -5.8051    0.0000 H   0  0  0  0  0  0  0  0  0  0  0  0
    3.1909   -3.2475    0.0000 H   0  0  0  0  0  0  0  0  0  0  0  0
    2.7924   -3.9378    0.0000 H   0  0  0  0  0  0  0  0  0  0  0  0
    3.4030   -5.4501    0.0000 H   0  0  0  0  0  0  0  0  0  0  0  0
    5.7427   -2.3535    0.0000 H   0  0  0  0  0  0  0  0  0  0  0  0
    5.0524   -2.7520    0.0000 H   0  0  0  0  0  0  0  0  0  0  0  0
    4.5150   -5.8301    0.0000 H   0  0  0  0  0  0  0  0  0  0  0  0
    5.1350   -6.4501    0.0000 H   0  0  0  0  0  0  0  0  0  0  0  0
    5.7550   -5.8301    0.0000 H   0  0  0  0  0  0  0  0  0  0  0  0
    4.3059   -2.1541    0.0000 H   0  0  0  0  0  0  0  0  0  0  0  0
    3.4590   -1.9272    0.0000 H   0  0  0  0  0  0  0  0  0  0  0  0
    3.2320   -2.7741    0.0000 H   0  0  0  0  0  0  0  0  0  0  0  0
    5.3059   -2.7741    0.0000 H   0  0  0  0  0  0  0  0  0  0  0  0
    5.0790   -1.9272    0.0000 H   0  0  0  0  0  0  0  0  0  0  0  0
    4.2320   -2.1541    0.0000 H   0  0  0  0  0  0  0  0  0  0  0  0
    2.0000   -5.0201    0.0000 H   0  0  0  0  0  0  0  0  0  0  0  0
    7.1720   -0.9221    0.0000 H   0  0  0  0  0  0  0  0  0  0  0  0
    6.3250   -0.6951    0.0000 H   0  0  0  0  0  0  0  0  0  0  0  0
    6.0981   -1.5420    0.0000 H   0  0  0  0  0  0  0  0  0  0  0  0
    8.4450   -2.6350    0.0000 H   0  0  0  0  0  0  0  0  0  0  0  0
    8.3250   -0.6951    0.0000 H   0  0  0  0  0  0  0  0  0  0  0  0
   21.7176    5.0422    0.0000 H   0  0  0  0  0  0  0  0  0  0  0  0
   21.0273    5.4407    0.0000 H   0  0  0  0  0  0  0  0  0  0  0  0
   21.9450    3.4272    0.0000 H   0  0  0  0  0  0  0  0  0  0  0  0
    9.9450   -1.7690    0.0000 H   0  0  0  0  0  0  0  0  0  0  0  0
   21.0273    2.4875    0.0000 H   0  0  0  0  0  0  0  0  0  0  0  0
   21.7176    2.8860    0.0000 H   0  0  0  0  0  0  0  0  0  0  0  0
   20.7550    5.8301    0.0000 H   0  0  0  0  0  0  0  0  0  0  0  0
   20.1350    6.4501    0.0000 H   0  0  0  0  0  0  0  0  0  0  0  0
   19.5150    5.8301    0.0000 H   0  0  0  0  0  0  0  0  0  0  0  0
   19.5790    5.8671    0.0000 H   0  0  0  0  0  0  0  0  0  0  0  0
   18.7320    5.6401    0.0000 H   0  0  0  0  0  0  0  0  0  0  0  0
   18.9590    4.7932    0.0000 H   0  0  0  0  0  0  0  0  0  0  0  0
   18.9590    3.1350    0.0000 H   0  0  0  0  0  0  0  0  0  0  0  0
   18.7320    2.2881    0.0000 H   0  0  0  0  0  0  0  0  0  0  0  0
   19.5790    2.0611    0.0000 H   0  0  0  0  0  0  0  0  0  0  0  0
   20.6719    1.7881    0.0000 H   0  0  0  0  0  0  0  0  0  0  0  0
   22.9450    4.5010    0.0000 H   0  0  0  0  0  0  0  0  0  0  0  0
   10.1719    0.8100    0.0000 H   0  0  0  0  0  0  0  0  0  0  0  0
    9.3250    1.0369    0.0000 H   0  0  0  0  0  0  0  0  0  0  0  0
    9.0981    0.1900    0.0000 H   0  0  0  0  0  0  0  0  0  0  0  0
   11.4450   -0.9030    0.0000 H   0  0  0  0  0  0  0  0  0  0  0  0
   17.3250    4.5010    0.0000 H   0  0  0  0  0  0  0  0  0  0  0  0
   11.3250    1.0369    0.0000 H   0  0  0  0  0  0  0  0  0  0  0  0
   17.0981    1.9220    0.0000 H   0  0  0  0  0  0  0  0  0  0  0  0
   17.9450    1.6951    0.0000 H   0  0  0  0  0  0  0  0  0  0  0  0
   18.1719    2.5420    0.0000 H   0  0  0  0  0  0  0  0  0  0  0  0
   15.8250    3.6350    0.0000 H   0  0  0  0  0  0  0  0  0  0  0  0
   12.9450   -0.0369    0.0000 H   0  0  0  0  0  0  0  0  0  0  0  0
   15.9450    1.6951    0.0000 H   0  0  0  0  0  0  0  0  0  0  0  0
   12.8250    1.9030    0.0000 H   0  0  0  0  0  0  0  0  0  0  0  0
   14.3250    2.7690    0.0000 H   0  0  0  0  0  0  0  0  0  0  0  0
   14.0981    0.1900    0.0000 H   0  0  0  0  0  0  0  0  0  0  0  0
   14.9450   -0.0369    0.0000 H   0  0  0  0  0  0  0  0  0  0  0  0
   15.1719    0.8100    0.0000 H   0  0  0  0  0  0  0  0  0  0  0  0
  1  6  1  0  0  0  0
  1  7  1  0  0  0  0
 11  2  1  1  0  0  0
  2 62  1  0  0  0  0
  3 16  2  0  0  0  0
 22  4  1  1  0  0  0
  4 83  1  0  0  0  0
 25  5  1  6  0  0  0
  5 84  1  0  0  0  0
  6  7  1  0  0  0  0
  6  8  1  0  0  0  0
  6 12  1  1  0  0  0
  7  9  1  0  0  0  0
  7 13  1  1  0  0  0
  8 10  1  0  0  0  0
  8 14  1  0  0  0  0
  8 15  1  0  0  0  0
  9 11  1  0  0  0  0
  9 46  1  0  0  0  0
  9 47  1  0  0  0  0
 10 11  1  0  0  0  0
 10 48  1  0  0  0  0
 10 49  1  0  0  0  0
 11 50  1  0  0  0  0
 12 16  1  0  0  0  0
 12 51  1  0  0  0  0
 12 52  1  0  0  0  0
 13 53  1  0  0  0  0
 13 54  1  0  0  0  0
 13 55  1  0  0  0  0
 14 56  1  0  0  0  0
 14 57  1  0  0  0  0
 14 58  1  0  0  0  0
 15 59  1  0  0  0  0
 15 60  1  0  0  0  0
 15 61  1  0  0  0  0
 16 17  1  0  0  0  0
 17 18  1  0  0  0  0
 17 19  2  0  0  0  0
 18 63  1  0  0  0  0
 18 64  1  0  0  0  0
 18 65  1  0  0  0  0
 19 20  1  0  0  0  0
 19 66  1  0  0  0  0
 20 24  2  0  0  0  0
 20 67  1  0  0  0  0
 21 23  1  0  0  0  0
 21 27  1  0  0  0  0
 21 28  1  0  0  0  0
 21 29  1  0  0  0  0
 22 26  1  0  0  0  0
 22 27  1  0  0  0  0
 22 30  1  0  0  0  0
 23 25  1  0  0  0  0
 23 68  1  0  0  0  0
 23 69  1  0  0  0  0
 24 31  1  0  0  0  0
 24 71  1  0  0  0  0
 25 26  1  0  0  0  0
 25 70  1  0  0  0  0
 26 72  1  0  0  0  0
 26 73  1  0  0  0  0
 27 32  2  0  0  0  0
 28 74  1  0  0  0  0
 28 75  1  0  0  0  0
 28 76  1  0  0  0  0
 29 77  1  0  0  0  0
 29 78  1  0  0  0  0
 29 79  1  0  0  0  0
 30 80  1  0  0  0  0
 30 81  1  0  0  0  0
 30 82  1  0  0  0  0
 31 33  1  0  0  0  0
 31 34  2  0  0  0  0
 32 35  2  0  0  0  0
 33 85  1  0  0  0  0
 33 86  1  0  0  0  0
 33 87  1  0  0  0  0
 34 37  1  0  0  0  0
 34 88  1  0  0  0  0
 35 36  1  0  0  0  0
 35 89  1  0  0  0  0
 36 38  1  0  0  0  0
 36 39  2  0  0  0  0
 37 40  2  0  0  0  0
 37 90  1  0  0  0  0
 38 91  1  0  0  0  0
 38 92  1  0  0  0  0
 38 93  1  0  0  0  0
 39 41  1  0  0  0  0
 39 94  1  0  0  0  0
 40 42  1  0  0  0  0
 40 95  1  0  0  0  0
 41 43  2  0  0  0  0
 41 96  1  0  0  0  0
 42 44  2  0  0  0  0
 42 97  1  0  0  0  0
 43 44  1  0  0  0  0
 43 98  1  0  0  0  0
 44 45  1  0  0  0  0
 45 99  1  0  0  0  0
 45100  1  0  0  0  0
 45101  1  0  0  0  0
M  END
> <PUBCHEM_COMPOUND_CID>
11273547

> <PUBCHEM_COMPOUND_CANONICALIZED>
0

> <PUBCHEM_CACTVS_COMPLEXITY>
1420

> <PUBCHEM_CACTVS_HBOND_ACCEPTOR>
5

> <PUBCHEM_CACTVS_HBOND_DONOR>
3

> <PUBCHEM_CACTVS_ROTATABLE_BOND>
10

> <PUBCHEM_CACTVS_SUBSKEYS>
AAADcfB8OAAAAAAAAAAAAAAAEgAAAAAAAAAwYAAABIAAAAAAAAAAGgAACAAADlSggAICAAAABgCIAqBSAAAAAAAgAAAICAEAAEgIFBYAAQACQAAFoAAIkYPK6PSPgAAAAAAAAABCAAYQADAAAAAAAAAAAA==

> <PUBCHEM_IUPAC_INCHI>
InChI=1S/C40H56O5/c1-28(17-13-18-30(3)21-22-35-36(5,6)23-32(41)25-38(35,9)44)15-11-12-16-29(2)19-14-20-31(4)34(43)27-40-37(7,8)24-33(42)26-39(40,10)45-40/h11-21,32-33,41-42,44H,23-27H2,1-10H3/b12-11+,17-13+,19-14+,28-15+,29-16+,30-18+,31-20+/t22?,32-,33-,38+,39+,40-/m0/s1

> <PUBCHEM_IUPAC_INCHIKEY>
NZEPSBGUXWWWSI-FWFPOGQTSA-N

> <PUBCHEM_XLOGP3_AA>
7.5

> <PUBCHEM_EXACT_MASS>
616.41277488

> <PUBCHEM_MOLECULAR_FORMULA>
C40H56O5

> <PUBCHEM_MOLECULAR_WEIGHT>
616.9

> <PUBCHEM_OPENEYE_CAN_SMILES>
CC(=CC=CC=C(C)C=CC=C(C)C(=O)CC12C(CC(CC1(O2)C)O)(C)C)C=CC=C(C)C=C=C3C(CC(CC3(C)O)O)(C)C

> <PUBCHEM_OPENEYE_ISO_SMILES>
C/C(=C\C=C\C=C(/C)\C=C\C=C(/C)\C(=O)C[C@]12[C@](O1)(C[C@H](CC2(C)C)O)C)/C=C/C=C(\C)/C=C=C3[C@](C[C@H](CC3(C)C)O)(C)O

> <PUBCHEM_CACTVS_TPSA>
90.3

> <PUBCHEM_MONOISOTOPIC_WEIGHT>
616.41277488

> <PUBCHEM_TOTAL_CHARGE>
0

> <PUBCHEM_HEAVY_ATOM_COUNT>
45

> <PUBCHEM_ATOM_DEF_STEREO_COUNT>
5

> <PUBCHEM_ATOM_UDEF_STEREO_COUNT>
0

> <PUBCHEM_BOND_DEF_STEREO_COUNT>
7

> <PUBCHEM_BOND_UDEF_STEREO_COUNT>
0

> <PUBCHEM_ISOTOPIC_ATOM_COUNT>
0

> <PUBCHEM_COMPONENT_COUNT>
1

> <PUBCHEM_CACTVS_TAUTO_COUNT>
-1

> <PUBCHEM_COORDINATE_TYPE>
1
5
255

> <PUBCHEM_BONDANNOTATIONS>
11  2  5
22  4  5
25  5  6
6  12  5
7  13  5

$$$$
