16095274
  -OEChem-02212201312D

 31 32  0     1  0  0  0  0  0999 V2000
    2.7056   -1.8211    0.0000 O   0  0  0  0  0  0  0  0  0  0  0  0
    2.0000   -0.1043    0.0000 O   0  0  0  0  0  0  0  0  0  0  0  0
    6.7528   -2.1830    0.0000 O   0  0  0  0  0  0  0  0  0  0  0  0
    3.7139   -0.8170    0.0000 C   0  0  2  0  0  0  0  0  0  0  0  0
    3.7139   -1.8170    0.0000 C   0  0  2  0  0  0  0  0  0  0  0  0
    4.6650   -2.1260    0.0000 C   0  0  0  0  0  0  0  0  0  0  0  0
    4.6650   -0.5080    0.0000 C   0  0  0  0  0  0  0  0  0  0  0  0
    3.7139    0.1830    0.0000 C   0  0  0  0  0  0  0  0  0  0  0  0
    2.7056   -0.8128    0.0000 C   0  0  0  0  0  0  0  0  0  0  0  0
    5.2528   -1.3170    0.0000 C   0  0  0  0  0  0  0  0  0  0  0  0
    6.2528   -1.3170    0.0000 C   0  0  0  0  0  0  0  0  0  0  0  0
    4.5800    0.6830    0.0000 C   0  0  0  0  0  0  0  0  0  0  0  0
    4.5800    1.6830    0.0000 C   0  0  0  0  0  0  0  0  0  0  0  0
    5.4460    2.1830    0.0000 C   0  0  0  0  0  0  0  0  0  0  0  0
    3.7139    2.1830    0.0000 C   0  0  0  0  0  0  0  0  0  0  0  0
    3.5827   -2.6568    0.0000 H   0  0  0  0  0  0  0  0  0  0  0  0
    4.4128   -2.6924    0.0000 H   0  0  0  0  0  0  0  0  0  0  0  0
    5.2019   -2.4360    0.0000 H   0  0  0  0  0  0  0  0  0  0  0  0
    4.8566    0.0817    0.0000 H   0  0  0  0  0  0  0  0  0  0  0  0
    3.5019    0.7656    0.0000 H   0  0  0  0  0  0  0  0  0  0  0  0
    3.1034    0.0754    0.0000 H   0  0  0  0  0  0  0  0  0  0  0  0
    6.8354   -1.1049    0.0000 H   0  0  0  0  0  0  0  0  0  0  0  0
    6.1451   -0.7064    0.0000 H   0  0  0  0  0  0  0  0  0  0  0  0
    5.1169    0.3730    0.0000 H   0  0  0  0  0  0  0  0  0  0  0  0
    7.3728   -2.1830    0.0000 H   0  0  0  0  0  0  0  0  0  0  0  0
    5.7560    1.6461    0.0000 H   0  0  0  0  0  0  0  0  0  0  0  0
    5.9829    2.4930    0.0000 H   0  0  0  0  0  0  0  0  0  0  0  0
    5.1360    2.7200    0.0000 H   0  0  0  0  0  0  0  0  0  0  0  0
    4.0239    2.7200    0.0000 H   0  0  0  0  0  0  0  0  0  0  0  0
    3.1770    2.4930    0.0000 H   0  0  0  0  0  0  0  0  0  0  0  0
    3.4039    1.6461    0.0000 H   0  0  0  0  0  0  0  0  0  0  0  0
  1  5  1  0  0  0  0
  1  9  1  0  0  0  0
  2  9  2  0  0  0  0
  3 11  1  0  0  0  0
  3 25  1  0  0  0  0
  4  5  1  0  0  0  0
  4  7  1  0  0  0  0
  4  8  1  1  0  0  0
  4  9  1  0  0  0  0
  5  6  1  0  0  0  0
  5 16  1  1  0  0  0
  6 10  1  0  0  0  0
  6 17  1  0  0  0  0
  6 18  1  0  0  0  0
  7 10  2  0  0  0  0
  7 19  1  0  0  0  0
  8 12  1  0  0  0  0
  8 20  1  0  0  0  0
  8 21  1  0  0  0  0
 10 11  1  0  0  0  0
 11 22  1  0  0  0  0
 11 23  1  0  0  0  0
 12 13  2  0  0  0  0
 12 24  1  0  0  0  0
 13 14  1  0  0  0  0
 13 15  1  0  0  0  0
 14 26  1  0  0  0  0
 14 27  1  0  0  0  0
 14 28  1  0  0  0  0
 15 29  1  0  0  0  0
 15 30  1  0  0  0  0
 15 31  1  0  0  0  0
M  END
> <PUBCHEM_COMPOUND_CID>
16095274

> <PUBCHEM_COMPOUND_CANONICALIZED>
1

> <PUBCHEM_CACTVS_COMPLEXITY>
350

> <PUBCHEM_CACTVS_HBOND_ACCEPTOR>
3

> <PUBCHEM_CACTVS_HBOND_DONOR>
1

> <PUBCHEM_CACTVS_ROTATABLE_BOND>
3

> <PUBCHEM_CACTVS_SUBSKEYS>
AAADceBwMAAAAAAAAAAAAAAAAABIAQAAAAAAAAAABAAAAAAAAAAAGgAACAAADhSggAICCAAABgCIAiDSCAAAAAAgAAAACAEAAAgAFBYAAQACUAAE4AAIEAPIyDAPAAAAAAAAAAAAAAAAAAAAAAAAAAAAAA==

> <PUBCHEM_IUPAC_OPENEYE_NAME>
(1R,5S)-3-(hydroxymethyl)-1-(3-methylbut-2-enyl)-6-oxabicyclo[3.2.0]hept-2-en-7-one

> <PUBCHEM_IUPAC_CAS_NAME>
(1R,5S)-3-(hydroxymethyl)-1-(3-methylbut-2-enyl)-6-oxabicyclo[3.2.0]hept-2-en-7-one

> <PUBCHEM_IUPAC_NAME_MARKUP>
(1<I>R</I>,5<I>S</I>)-3-(hydroxymethyl)-1-(3-methylbut-2-enyl)-6-oxabicyclo[3.2.0]hept-2-en-7-one

> <PUBCHEM_IUPAC_NAME>
(1R,5S)-3-(hydroxymethyl)-1-(3-methylbut-2-enyl)-6-oxabicyclo[3.2.0]hept-2-en-7-one

> <PUBCHEM_IUPAC_SYSTEMATIC_NAME>
(1R,5S)-3-(hydroxymethyl)-1-(3-methylbut-2-enyl)-6-oxabicyclo[3.2.0]hept-2-en-7-one

> <PUBCHEM_IUPAC_TRADITIONAL_NAME>
(1R,5S)-1-(3-methylbut-2-enyl)-3-methylol-6-oxabicyclo[3.2.0]hept-2-en-7-one

> <PUBCHEM_IUPAC_INCHI>
InChI=1S/C12H16O3/c1-8(2)3-4-12-6-9(7-13)5-10(12)15-11(12)14/h3,6,10,13H,4-5,7H2,1-2H3/t10-,12+/m0/s1

> <PUBCHEM_IUPAC_INCHIKEY>
UGNVBODTSYDQPO-CMPLNLGQSA-N

> <PUBCHEM_XLOGP3_AA>
1.2

> <PUBCHEM_EXACT_MASS>
208.109944368

> <PUBCHEM_MOLECULAR_FORMULA>
C12H16O3

> <PUBCHEM_MOLECULAR_WEIGHT>
208.25

> <PUBCHEM_OPENEYE_CAN_SMILES>
CC(=CCC12C=C(CC1OC2=O)CO)C

> <PUBCHEM_OPENEYE_ISO_SMILES>
CC(=CC[C@@]12C=C(C[C@@H]1OC2=O)CO)C

> <PUBCHEM_CACTVS_TPSA>
46.5

> <PUBCHEM_MONOISOTOPIC_WEIGHT>
208.109944368

> <PUBCHEM_TOTAL_CHARGE>
0

> <PUBCHEM_HEAVY_ATOM_COUNT>
15

> <PUBCHEM_ATOM_DEF_STEREO_COUNT>
2

> <PUBCHEM_ATOM_UDEF_STEREO_COUNT>
0

> <PUBCHEM_BOND_DEF_STEREO_COUNT>
0

> <PUBCHEM_BOND_UDEF_STEREO_COUNT>
0

> <PUBCHEM_ISOTOPIC_ATOM_COUNT>
0

> <PUBCHEM_COMPONENT_COUNT>
1

> <PUBCHEM_CACTVS_TAUTO_COUNT>
-1

> <PUBCHEM_COORDINATE_TYPE>
1
5
255

> <PUBCHEM_BONDANNOTATIONS>
4  8  5
5  16  5

$$$$
