73599
  -OEChem-02212201202D

 86 90  0     1  0  0  0  0  0999 V2000
    7.0628    1.7625    0.0000 O   0  0  0  0  0  0  0  0  0  0  0  0
    6.1847   -3.8067    0.0000 O   0  0  0  0  0  0  0  0  0  0  0  0
    9.9300    2.1856    0.0000 O   0  0  0  0  0  0  0  0  0  0  0  0
    2.5357   -2.7898    0.0000 O   0  0  0  0  0  0  0  0  0  0  0  0
    7.0628   -1.2375    0.0000 C   0  0  1  0  0  0  0  0  0  0  0  0
    7.9288   -0.7375    0.0000 C   0  0  1  0  0  0  0  0  0  0  0  0
    6.1968   -0.7375    0.0000 C   0  0  1  0  0  0  0  0  0  0  0  0
    5.2868   -1.2443    0.0000 C   0  0  2  0  0  0  0  0  0  0  0  0
    7.9288    0.2625    0.0000 C   0  0  1  0  0  0  0  0  0  0  0  0
    5.2787   -2.2859    0.0000 C   0  0  1  0  0  0  0  0  0  0  0  0
    8.8750    0.5673    0.0000 C   0  0  2  0  0  0  0  0  0  0  0  0
    7.0789   -2.2790    0.0000 C   0  0  0  0  0  0  0  0  0  0  0  0
    6.1968    0.2625    0.0000 C   0  0  0  0  0  0  0  0  0  0  0  0
    8.8750   -1.0422    0.0000 C   0  0  0  0  0  0  0  0  0  0  0  0
    7.0628    0.7625    0.0000 C   0  0  1  0  0  0  0  0  0  0  0  0
    6.1808   -2.8067    0.0000 C   0  0  1  0  0  0  0  0  0  0  0  0
    9.4586   -0.2375    0.0000 C   0  0  0  0  0  0  0  0  0  0  0  0
    4.3433   -2.8356    0.0000 C   0  0  0  0  0  0  0  0  0  0  0  0
    4.3599   -0.6802    0.0000 C   0  0  0  0  0  0  0  0  0  0  0  0
    7.7056   -2.0035    0.0000 C   0  0  0  0  0  0  0  0  0  0  0  0
    8.2709   -1.6771    0.0000 C   0  0  0  0  0  0  0  0  0  0  0  0
    9.1857    1.5178    0.0000 C   0  0  1  0  0  0  0  0  0  0  0  0
    5.2945   -0.2443    0.0000 C   0  0  0  0  0  0  0  0  0  0  0  0
    3.4037   -2.2931    0.0000 C   0  0  2  0  0  0  0  0  0  0  0  0
    3.4120   -1.2082    0.0000 C   0  0  0  0  0  0  0  0  0  0  0  0
    3.8467   -3.7036    0.0000 C   0  0  0  0  0  0  0  0  0  0  0  0
    4.8466   -3.6997    0.0000 C   0  0  0  0  0  0  0  0  0  0  0  0
    8.2352    1.8284    0.0000 C   0  0  0  0  0  0  0  0  0  0  0  0
    9.8536    0.7735    0.0000 C   0  0  0  0  0  0  0  0  0  0  0  0
    8.0290    2.8070    0.0000 C   0  0  0  0  0  0  0  0  0  0  0  0
    9.7238    3.1641    0.0000 C   0  0  0  0  0  0  0  0  0  0  0  0
    8.7733    3.4748    0.0000 C   0  0  0  0  0  0  0  0  0  0  0  0
   10.0344    4.1146    0.0000 C   0  0  0  0  0  0  0  0  0  0  0  0
   10.7023    3.3704    0.0000 C   0  0  0  0  0  0  0  0  0  0  0  0
    6.9329   -0.3125    0.0000 H   0  0  0  0  0  0  0  0  0  0  0  0
    8.0188    1.1078    0.0000 H   0  0  0  0  0  0  0  0  0  0  0  0
    5.2820   -3.1359    0.0000 H   0  0  0  0  0  0  0  0  0  0  0  0
    9.7148    0.6991    0.0000 H   0  0  0  0  0  0  0  0  0  0  0  0
    7.2969   -2.8594    0.0000 H   0  0  0  0  0  0  0  0  0  0  0  0
    7.6880   -2.1635    0.0000 H   0  0  0  0  0  0  0  0  0  0  0  0
    5.9847    0.8451    0.0000 H   0  0  0  0  0  0  0  0  0  0  0  0
    5.5862    0.1549    0.0000 H   0  0  0  0  0  0  0  0  0  0  0  0
    8.6240   -1.6091    0.0000 H   0  0  0  0  0  0  0  0  0  0  0  0
    9.4124   -1.3514    0.0000 H   0  0  0  0  0  0  0  0  0  0  0  0
    7.5997    1.0725    0.0000 H   0  0  0  0  0  0  0  0  0  0  0  0
    6.7195   -3.1136    0.0000 H   0  0  0  0  0  0  0  0  0  0  0  0
    9.9195   -0.6522    0.0000 H   0  0  0  0  0  0  0  0  0  0  0  0
    9.9195    0.1773    0.0000 H   0  0  0  0  0  0  0  0  0  0  0  0
    4.7681   -0.2136    0.0000 H   0  0  0  0  0  0  0  0  0  0  0  0
    3.9700   -0.1982    0.0000 H   0  0  0  0  0  0  0  0  0  0  0  0
    7.2306   -2.4020    0.0000 H   0  0  0  0  0  0  0  0  0  0  0  0
    8.1041   -2.4785    0.0000 H   0  0  0  0  0  0  0  0  0  0  0  0
    8.1805   -1.6050    0.0000 H   0  0  0  0  0  0  0  0  0  0  0  0
    7.6884   -1.8892    0.0000 H   0  0  0  0  0  0  0  0  0  0  0  0
    8.4830   -2.2597    0.0000 H   0  0  0  0  0  0  0  0  0  0  0  0
    8.8535   -1.4650    0.0000 H   0  0  0  0  0  0  0  0  0  0  0  0
    5.9145   -0.2491    0.0000 H   0  0  0  0  0  0  0  0  0  0  0  0
    5.2993    0.3756    0.0000 H   0  0  0  0  0  0  0  0  0  0  0  0
    4.6745   -0.2396    0.0000 H   0  0  0  0  0  0  0  0  0  0  0  0
    3.4025   -2.9131    0.0000 H   0  0  0  0  0  0  0  0  0  0  0  0
    3.2075   -0.6229    0.0000 H   0  0  0  0  0  0  0  0  0  0  0  0
    2.8004   -1.3096    0.0000 H   0  0  0  0  0  0  0  0  0  0  0  0
    3.3085   -3.3957    0.0000 H   0  0  0  0  0  0  0  0  0  0  0  0
    3.5387   -4.2417    0.0000 H   0  0  0  0  0  0  0  0  0  0  0  0
    4.3848   -4.0115    0.0000 H   0  0  0  0  0  0  0  0  0  0  0  0
    4.3109   -4.0118    0.0000 H   0  0  0  0  0  0  0  0  0  0  0  0
    5.1587   -4.2355    0.0000 H   0  0  0  0  0  0  0  0  0  0  0  0
    5.3824   -3.3877    0.0000 H   0  0  0  0  0  0  0  0  0  0  0  0
    7.6155    1.8079    0.0000 H   0  0  0  0  0  0  0  0  0  0  0  0
    8.1478    1.2146    0.0000 H   0  0  0  0  0  0  0  0  0  0  0  0
    6.5259    2.0725    0.0000 H   0  0  0  0  0  0  0  0  0  0  0  0
    6.7228   -4.1146    0.0000 H   0  0  0  0  0  0  0  0  0  0  0  0
    9.3921    0.3594    0.0000 H   0  0  0  0  0  0  0  0  0  0  0  0
   10.2676    0.3120    0.0000 H   0  0  0  0  0  0  0  0  0  0  0  0
   10.3150    1.1875    0.0000 H   0  0  0  0  0  0  0  0  0  0  0  0
    7.7013    3.3333    0.0000 H   0  0  0  0  0  0  0  0  0  0  0  0
    7.4537    2.5757    0.0000 H   0  0  0  0  0  0  0  0  0  0  0  0
    2.0000   -2.4777    0.0000 H   0  0  0  0  0  0  0  0  0  0  0  0
    9.0653    4.0217    0.0000 H   0  0  0  0  0  0  0  0  0  0  0  0
    8.2854    3.8574    0.0000 H   0  0  0  0  0  0  0  0  0  0  0  0
   10.6238    3.9220    0.0000 H   0  0  0  0  0  0  0  0  0  0  0  0
   10.2271    4.7040    0.0000 H   0  0  0  0  0  0  0  0  0  0  0  0
    9.4451    4.3073    0.0000 H   0  0  0  0  0  0  0  0  0  0  0  0
   10.8301    2.7637    0.0000 H   0  0  0  0  0  0  0  0  0  0  0  0
   11.3090    3.4982    0.0000 H   0  0  0  0  0  0  0  0  0  0  0  0
   10.5744    3.9770    0.0000 H   0  0  0  0  0  0  0  0  0  0  0  0
 15  1  1  1  0  0  0
  1 71  1  0  0  0  0
 16  2  1  1  0  0  0
  2 72  1  0  0  0  0
  3 22  1  0  0  0  0
  3 31  1  0  0  0  0
 24  4  1  1  0  0  0
  4 78  1  0  0  0  0
  5  6  1  0  0  0  0
  5  7  1  0  0  0  0
  5 12  1  0  0  0  0
  5 20  1  1  0  0  0
  6  9  1  0  0  0  0
  6 14  1  0  0  0  0
  6 21  1  6  0  0  0
  7  8  1  0  0  0  0
  7 13  1  0  0  0  0
  7 35  1  6  0  0  0
  8 10  1  0  0  0  0
  8 19  1  0  0  0  0
  8 23  1  1  0  0  0
  9 11  1  0  0  0  0
  9 15  1  0  0  0  0
  9 36  1  1  0  0  0
 10 16  1  0  0  0  0
 10 18  1  0  0  0  0
 10 37  1  6  0  0  0
 11 17  1  0  0  0  0
 11 22  1  0  0  0  0
 11 38  1  6  0  0  0
 12 16  1  0  0  0  0
 12 39  1  0  0  0  0
 12 40  1  0  0  0  0
 13 15  1  0  0  0  0
 13 41  1  0  0  0  0
 13 42  1  0  0  0  0
 14 17  1  0  0  0  0
 14 43  1  0  0  0  0
 14 44  1  0  0  0  0
 15 45  1  0  0  0  0
 16 46  1  0  0  0  0
 17 47  1  0  0  0  0
 17 48  1  0  0  0  0
 18 24  1  0  0  0  0
 18 26  1  0  0  0  0
 18 27  1  0  0  0  0
 19 25  1  0  0  0  0
 19 49  1  0  0  0  0
 19 50  1  0  0  0  0
 20 51  1  0  0  0  0
 20 52  1  0  0  0  0
 20 53  1  0  0  0  0
 21 54  1  0  0  0  0
 21 55  1  0  0  0  0
 21 56  1  0  0  0  0
 22 28  1  0  0  0  0
 22 29  1  6  0  0  0
 23 57  1  0  0  0  0
 23 58  1  0  0  0  0
 23 59  1  0  0  0  0
 24 25  1  0  0  0  0
 24 60  1  0  0  0  0
 25 61  1  0  0  0  0
 25 62  1  0  0  0  0
 26 63  1  0  0  0  0
 26 64  1  0  0  0  0
 26 65  1  0  0  0  0
 27 66  1  0  0  0  0
 27 67  1  0  0  0  0
 27 68  1  0  0  0  0
 28 30  1  0  0  0  0
 28 69  1  0  0  0  0
 28 70  1  0  0  0  0
 29 73  1  0  0  0  0
 29 74  1  0  0  0  0
 29 75  1  0  0  0  0
 30 32  1  0  0  0  0
 30 76  1  0  0  0  0
 30 77  1  0  0  0  0
 31 32  1  0  0  0  0
 31 33  1  0  0  0  0
 31 34  1  0  0  0  0
 32 79  1  0  0  0  0
 32 80  1  0  0  0  0
 33 81  1  0  0  0  0
 33 82  1  0  0  0  0
 33 83  1  0  0  0  0
 34 84  1  0  0  0  0
 34 85  1  0  0  0  0
 34 86  1  0  0  0  0
M  END
> <PUBCHEM_COMPOUND_CID>
73599

> <PUBCHEM_COMPOUND_CANONICALIZED>
1

> <PUBCHEM_CACTVS_COMPLEXITY>
823

> <PUBCHEM_CACTVS_HBOND_ACCEPTOR>
4

> <PUBCHEM_CACTVS_HBOND_DONOR>
3

> <PUBCHEM_CACTVS_ROTATABLE_BOND>
1

> <PUBCHEM_CACTVS_SUBSKEYS>
AAADcfB4OAAAAAAAAAAAAAAAAAAAAYAAAAA0YMEAAAAAAGDAAAAAGgAACAAAD1SggAICAAAABgAAAAAAAAAAAAAAAAAAAAAAAAAAEAIAAAACQAAEAAAAAAHAwPAPgAAAAAAAAADAAAYAADAAAQAACAAAAA==

> <PUBCHEM_IUPAC_OPENEYE_NAME>
(3S,5R,6R,8R,9R,10R,12R,13R,14R,17S)-4,4,8,10,14-pentamethyl-17-[(2R)-2,6,6-trimethyltetrahydropyran-2-yl]-2,3,5,6,7,9,11,12,13,15,16,17-dodecahydro-1H-cyclopenta[a]phenanthrene-3,6,12-triol

> <PUBCHEM_IUPAC_CAS_NAME>
(3S,5R,6R,8R,9R,10R,12R,13R,14R,17S)-4,4,8,10,14-pentamethyl-17-[(2R)-2,6,6-trimethyl-2-oxanyl]-2,3,5,6,7,9,11,12,13,15,16,17-dodecahydro-1H-cyclopenta[a]phenanthrene-3,6,12-triol

> <PUBCHEM_IUPAC_NAME_MARKUP>
(3<I>S</I>,5<I>R</I>,6<I>R</I>,8<I>R</I>,9<I>R</I>,10<I>R</I>,12<I>R</I>,13<I>R</I>,14<I>R</I>,17<I>S</I>)-4,4,8,10,14-pentamethyl-17-[(2<I>R</I>)-2,6,6-trimethyloxan-2-yl]-2,3,5,6,7,9,11,12,13,15,16,17-dodecahydro-1<I>H</I>-cyclopenta[a]phenanthrene-3,6,12-triol

> <PUBCHEM_IUPAC_NAME>
(3S,5R,6R,8R,9R,10R,12R,13R,14R,17S)-4,4,8,10,14-pentamethyl-17-[(2R)-2,6,6-trimethyloxan-2-yl]-2,3,5,6,7,9,11,12,13,15,16,17-dodecahydro-1H-cyclopenta[a]phenanthrene-3,6,12-triol

> <PUBCHEM_IUPAC_SYSTEMATIC_NAME>
(3S,5R,6R,8R,9R,10R,12R,13R,14R,17S)-4,4,8,10,14-pentamethyl-17-[(2R)-2,6,6-trimethyloxan-2-yl]-2,3,5,6,7,9,11,12,13,15,16,17-dodecahydro-1H-cyclopenta[a]phenanthrene-3,6,12-triol

> <PUBCHEM_IUPAC_TRADITIONAL_NAME>
(3S,5R,6R,8R,9R,10R,12R,13R,14R,17S)-4,4,8,10,14-pentamethyl-17-[(2R)-2,6,6-trimethyltetrahydropyran-2-yl]-2,3,5,6,7,9,11,12,13,15,16,17-dodecahydro-1H-cyclopenta[a]phenanthrene-3,6,12-triol

> <PUBCHEM_IUPAC_INCHI>
InChI=1S/C30H52O4/c1-25(2)12-9-13-30(8,34-25)18-10-15-28(6)23(18)19(31)16-21-27(5)14-11-22(33)26(3,4)24(27)20(32)17-29(21,28)7/h18-24,31-33H,9-17H2,1-8H3/t18-,19+,20+,21+,22-,23-,24-,27+,28+,29+,30+/m0/s1

> <PUBCHEM_IUPAC_INCHIKEY>
QFJUYMMIBFBOJY-UXZRXANASA-N

> <PUBCHEM_XLOGP3_AA>
5.5

> <PUBCHEM_EXACT_MASS>
476.38656014

> <PUBCHEM_MOLECULAR_FORMULA>
C30H52O4

> <PUBCHEM_MOLECULAR_WEIGHT>
476.7

> <PUBCHEM_OPENEYE_CAN_SMILES>
CC1(CCCC(O1)(C)C2CCC3(C2C(CC4C3(CC(C5C4(CCC(C5(C)C)O)C)O)C)O)C)C

> <PUBCHEM_OPENEYE_ISO_SMILES>
C[C@@]1(CCCC(O1)(C)C)[C@H]2CC[C@@]3([C@@H]2[C@@H](C[C@H]4[C@]3(C[C@H]([C@@H]5[C@@]4(CC[C@@H](C5(C)C)O)C)O)C)O)C

> <PUBCHEM_CACTVS_TPSA>
69.9

> <PUBCHEM_MONOISOTOPIC_WEIGHT>
476.38656014

> <PUBCHEM_TOTAL_CHARGE>
0

> <PUBCHEM_HEAVY_ATOM_COUNT>
34

> <PUBCHEM_ATOM_DEF_STEREO_COUNT>
11

> <PUBCHEM_ATOM_UDEF_STEREO_COUNT>
0

> <PUBCHEM_BOND_DEF_STEREO_COUNT>
0

> <PUBCHEM_BOND_UDEF_STEREO_COUNT>
0

> <PUBCHEM_ISOTOPIC_ATOM_COUNT>
0

> <PUBCHEM_COMPONENT_COUNT>
1

> <PUBCHEM_CACTVS_TAUTO_COUNT>
1

> <PUBCHEM_COORDINATE_TYPE>
1
5
255

> <PUBCHEM_BONDANNOTATIONS>
15  1  5
10  37  6
11  38  6
16  2  5
22  29  6
24  4  5
5  20  5
6  21  6
7  35  6
8  23  5
9  36  5

$$$$
