6436821
  -OEChem-02212201362D

 61 61  0     1  0  0  0  0  0999 V2000
    4.6730   -1.8795    0.0000 O   0  0  0  0  0  0  0  0  0  0  0  0
    2.9659   -2.5866    0.0000 O   0  0  0  0  0  0  0  0  0  0  0  0
   11.6240   -0.0523    0.0000 O   0  0  0  0  0  0  0  0  0  0  0  0
    9.9510   -0.5006    0.0000 O   0  0  0  0  0  0  0  0  0  0  0  0
    4.6730   -0.8795    0.0000 C   0  0  2  0  0  0  0  0  0  0  0  0
    3.6730   -0.8795    0.0000 C   0  0  2  0  0  0  0  0  0  0  0  0
    5.3801   -0.1724    0.0000 C   0  0  2  0  0  0  0  0  0  0  0  0
    6.3461   -0.4313    0.0000 C   0  0  0  0  0  0  0  0  0  0  0  0
    2.9659   -0.1724    0.0000 C   0  0  0  0  0  0  0  0  0  0  0  0
    3.6730   -1.8795    0.0000 C   0  0  0  0  0  0  0  0  0  0  0  0
    5.1213    0.7935    0.0000 C   0  0  0  0  0  0  0  0  0  0  0  0
    7.0532    0.2759    0.0000 C   0  0  0  0  0  0  0  0  0  0  0  0
   10.3992    1.1724    0.0000 C   0  0  1  0  0  0  0  0  0  0  0  0
   11.3652    0.9136    0.0000 C   0  0  1  0  0  0  0  0  0  0  0  0
   12.0723    1.6207    0.0000 C   0  0  1  0  0  0  0  0  0  0  0  0
    8.7262    0.7241    0.0000 C   0  0  2  0  0  0  0  0  0  0  0  0
    2.0000   -0.4313    0.0000 C   0  0  0  0  0  0  0  0  0  0  0  0
    8.0191    0.0170    0.0000 C   0  0  0  0  0  0  0  0  0  0  0  0
    9.6921    0.4653    0.0000 C   0  0  0  0  0  0  0  0  0  0  0  0
   13.0382    1.3619    0.0000 C   0  0  0  0  0  0  0  0  0  0  0  0
    6.7944    1.2418    0.0000 C   0  0  0  0  0  0  0  0  0  0  0  0
   10.1404    2.1384    0.0000 C   0  0  0  0  0  0  0  0  0  0  0  0
   11.8135    2.5866    0.0000 C   0  0  0  0  0  0  0  0  0  0  0  0
    8.4674    1.6901    0.0000 C   0  0  0  0  0  0  0  0  0  0  0  0
   13.7453    2.0690    0.0000 C   0  0  0  0  0  0  0  0  0  0  0  0
    5.4583   -1.2048    0.0000 H   0  0  0  0  0  0  0  0  0  0  0  0
    3.1002   -1.1168    0.0000 H   0  0  0  0  0  0  0  0  0  0  0  0
    5.8186    0.2660    0.0000 H   0  0  0  0  0  0  0  0  0  0  0  0
    6.0840   -0.9932    0.0000 H   0  0  0  0  0  0  0  0  0  0  0  0
    6.8539   -0.7869    0.0000 H   0  0  0  0  0  0  0  0  0  0  0  0
    3.4738    0.1832    0.0000 H   0  0  0  0  0  0  0  0  0  0  0  0
    2.7039    0.3895    0.0000 H   0  0  0  0  0  0  0  0  0  0  0  0
    5.7202    0.9540    0.0000 H   0  0  0  0  0  0  0  0  0  0  0  0
    4.9608    1.3924    0.0000 H   0  0  0  0  0  0  0  0  0  0  0  0
    4.5224    0.6330    0.0000 H   0  0  0  0  0  0  0  0  0  0  0  0
   10.8376    1.6108    0.0000 H   0  0  0  0  0  0  0  0  0  0  0  0
   10.9268    0.4752    0.0000 H   0  0  0  0  0  0  0  0  0  0  0  0
   11.4734    1.7812    0.0000 H   0  0  0  0  0  0  0  0  0  0  0  0
    9.1646    1.1626    0.0000 H   0  0  0  0  0  0  0  0  0  0  0  0
    1.8395    0.1676    0.0000 H   0  0  0  0  0  0  0  0  0  0  0  0
    1.4011   -0.5917    0.0000 H   0  0  0  0  0  0  0  0  0  0  0  0
    2.1605   -1.0301    0.0000 H   0  0  0  0  0  0  0  0  0  0  0  0
    8.1796   -0.5818    0.0000 H   0  0  0  0  0  0  0  0  0  0  0  0
   12.7762    0.8000    0.0000 H   0  0  0  0  0  0  0  0  0  0  0  0
   13.5461    1.0063    0.0000 H   0  0  0  0  0  0  0  0  0  0  0  0
    7.3932    1.4022    0.0000 H   0  0  0  0  0  0  0  0  0  0  0  0
    6.6339    1.8407    0.0000 H   0  0  0  0  0  0  0  0  0  0  0  0
    6.1955    1.0813    0.0000 H   0  0  0  0  0  0  0  0  0  0  0  0
   10.7393    2.2988    0.0000 H   0  0  0  0  0  0  0  0  0  0  0  0
    9.9800    2.7372    0.0000 H   0  0  0  0  0  0  0  0  0  0  0  0
    9.5415    1.9779    0.0000 H   0  0  0  0  0  0  0  0  0  0  0  0
   12.4123    2.7471    0.0000 H   0  0  0  0  0  0  0  0  0  0  0  0
   11.6530    3.1855    0.0000 H   0  0  0  0  0  0  0  0  0  0  0  0
   11.2146    2.4262    0.0000 H   0  0  0  0  0  0  0  0  0  0  0  0
    9.0663    1.8505    0.0000 H   0  0  0  0  0  0  0  0  0  0  0  0
    8.3069    2.2889    0.0000 H   0  0  0  0  0  0  0  0  0  0  0  0
    7.8685    1.5296    0.0000 H   0  0  0  0  0  0  0  0  0  0  0  0
   12.2229   -0.2128    0.0000 H   0  0  0  0  0  0  0  0  0  0  0  0
   14.1837    1.6306    0.0000 H   0  0  0  0  0  0  0  0  0  0  0  0
   14.1837    2.5074    0.0000 H   0  0  0  0  0  0  0  0  0  0  0  0
   13.3069    2.5074    0.0000 H   0  0  0  0  0  0  0  0  0  0  0  0
  1  5  1  0  0  0  0
  1 10  1  0  0  0  0
  2 10  2  0  0  0  0
 14  3  1  1  0  0  0
  3 58  1  0  0  0  0
  4 19  2  0  0  0  0
  5  6  1  0  0  0  0
  5  7  1  0  0  0  0
  5 26  1  1  0  0  0
  6  9  1  1  0  0  0
  6 10  1  0  0  0  0
  6 27  1  0  0  0  0
  7  8  1  0  0  0  0
  7 11  1  1  0  0  0
  7 28  1  0  0  0  0
  8 12  1  0  0  0  0
  8 29  1  0  0  0  0
  8 30  1  0  0  0  0
  9 17  1  0  0  0  0
  9 31  1  0  0  0  0
  9 32  1  0  0  0  0
 11 33  1  0  0  0  0
 11 34  1  0  0  0  0
 11 35  1  0  0  0  0
 12 18  2  0  0  0  0
 12 21  1  0  0  0  0
 13 14  1  0  0  0  0
 13 19  1  0  0  0  0
 13 22  1  1  0  0  0
 13 36  1  0  0  0  0
 14 15  1  0  0  0  0
 14 37  1  0  0  0  0
 15 20  1  0  0  0  0
 15 23  1  6  0  0  0
 15 38  1  0  0  0  0
 16 18  1  0  0  0  0
 16 19  1  0  0  0  0
 16 24  1  1  0  0  0
 16 39  1  0  0  0  0
 17 40  1  0  0  0  0
 17 41  1  0  0  0  0
 17 42  1  0  0  0  0
 18 43  1  0  0  0  0
 20 25  1  0  0  0  0
 20 44  1  0  0  0  0
 20 45  1  0  0  0  0
 21 46  1  0  0  0  0
 21 47  1  0  0  0  0
 21 48  1  0  0  0  0
 22 49  1  0  0  0  0
 22 50  1  0  0  0  0
 22 51  1  0  0  0  0
 23 52  1  0  0  0  0
 23 53  1  0  0  0  0
 23 54  1  0  0  0  0
 24 55  1  0  0  0  0
 24 56  1  0  0  0  0
 24 57  1  0  0  0  0
 25 59  1  0  0  0  0
 25 60  1  0  0  0  0
 25 61  1  0  0  0  0
M  END
> <PUBCHEM_COMPOUND_CID>
6436821

> <PUBCHEM_COMPOUND_CANONICALIZED>
1

> <PUBCHEM_CACTVS_COMPLEXITY>
496

> <PUBCHEM_CACTVS_HBOND_ACCEPTOR>
4

> <PUBCHEM_CACTVS_HBOND_DONOR>
1

> <PUBCHEM_CACTVS_ROTATABLE_BOND>
10

> <PUBCHEM_CACTVS_SUBSKEYS>
AAADcfB4OAAAAAAAAAAAAAAAAABIAAAAAAAAAAAAAAAAAAAAAAAAGgAACAAADRSggAICCAAABgCIAqDSCAAAAAAgAAAACAEAAAgAEBYAAQACQAAEoAAIAAOIyOCOAAAAAAAAAAAAAAAAAAAAAAAAAAAAAA==

> <PUBCHEM_IUPAC_OPENEYE_NAME>
(3S,4S)-3-ethyl-4-[(E,1S,5R,7S,8R,9R)-8-hydroxy-1,3,5,7,9-pentamethyl-6-oxo-undec-3-enyl]oxetan-2-one

> <PUBCHEM_IUPAC_CAS_NAME>
(3S,4S)-3-ethyl-4-[(E,2S,6R,8S,9R,10R)-9-hydroxy-4,6,8,10-tetramethyl-7-oxododec-4-en-2-yl]-2-oxetanone

> <PUBCHEM_IUPAC_NAME_MARKUP>
(3<I>S</I>,4<I>S</I>)-3-ethyl-4-[(<I>E</I>,2<I>S</I>,6<I>R</I>,8<I>S</I>,9<I>R</I>,10<I>R</I>)-9-hydroxy-4,6,8,10-tetramethyl-7-oxododec-4-en-2-yl]oxetan-2-one

> <PUBCHEM_IUPAC_NAME>
(3S,4S)-3-ethyl-4-[(E,2S,6R,8S,9R,10R)-9-hydroxy-4,6,8,10-tetramethyl-7-oxododec-4-en-2-yl]oxetan-2-one

> <PUBCHEM_IUPAC_SYSTEMATIC_NAME>
(3S,4S)-3-ethyl-4-[(E,2S,6R,8S,9R,10R)-4,6,8,10-tetramethyl-9-oxidanyl-7-oxidanylidene-dodec-4-en-2-yl]oxetan-2-one

> <PUBCHEM_IUPAC_TRADITIONAL_NAME>
(3S,4S)-3-ethyl-4-[(E,1S,5R,7S,8R,9R)-8-hydroxy-6-keto-1,3,5,7,9-pentamethyl-undec-3-enyl]oxetan-2-one

> <PUBCHEM_IUPAC_INCHI>
InChI=1S/C21H36O4/c1-8-13(4)18(22)16(7)19(23)14(5)10-12(3)11-15(6)20-17(9-2)21(24)25-20/h10,13-18,20,22H,8-9,11H2,1-7H3/b12-10+/t13-,14-,15+,16+,17+,18-,20+/m1/s1

> <PUBCHEM_IUPAC_INCHIKEY>
UNBMQQNYLCPCHS-VYNDPHDASA-N

> <PUBCHEM_XLOGP3_AA>
5

> <PUBCHEM_EXACT_MASS>
352.26135963

> <PUBCHEM_MOLECULAR_FORMULA>
C21H36O4

> <PUBCHEM_MOLECULAR_WEIGHT>
352.5

> <PUBCHEM_OPENEYE_CAN_SMILES>
CCC1C(OC1=O)C(C)CC(=CC(C)C(=O)C(C)C(C(C)CC)O)C

> <PUBCHEM_OPENEYE_ISO_SMILES>
CC[C@H]1[C@@H](OC1=O)[C@@H](C)C/C(=C/[C@@H](C)C(=O)[C@@H](C)[C@@H]([C@H](C)CC)O)/C

> <PUBCHEM_CACTVS_TPSA>
63.6

> <PUBCHEM_MONOISOTOPIC_WEIGHT>
352.26135963

> <PUBCHEM_TOTAL_CHARGE>
0

> <PUBCHEM_HEAVY_ATOM_COUNT>
25

> <PUBCHEM_ATOM_DEF_STEREO_COUNT>
7

> <PUBCHEM_ATOM_UDEF_STEREO_COUNT>
0

> <PUBCHEM_BOND_DEF_STEREO_COUNT>
1

> <PUBCHEM_BOND_UDEF_STEREO_COUNT>
0

> <PUBCHEM_ISOTOPIC_ATOM_COUNT>
0

> <PUBCHEM_COMPONENT_COUNT>
1

> <PUBCHEM_CACTVS_TAUTO_COUNT>
10

> <PUBCHEM_COORDINATE_TYPE>
1
5
255

> <PUBCHEM_BONDANNOTATIONS>
13  22  5
15  23  6
16  24  5
14  3  5
5  26  5
6  9  5
7  11  5

$$$$
