44257105
  -OEChem-02222212262D

 50 53  0     1  0  0  0  0  0999 V2000
    6.0682    1.9796    0.0000 O   0  0  0  0  0  0  0  0  0  0  0  0
    7.8003    3.9796    0.0000 O   0  0  0  0  0  0  0  0  0  0  0  0
    4.3198    5.0142    0.0000 O   0  0  0  0  0  0  0  0  0  0  0  0
    8.6663   -0.5204    0.0000 O   0  0  0  0  0  0  0  0  0  0  0  0
    2.5381    1.9555    0.0000 O   0  0  0  0  0  0  0  0  0  0  0  0
   10.3984    0.4796    0.0000 O   0  0  0  0  0  0  0  0  0  0  0  0
   10.3984   -0.5204    0.0000 O   0  0  0  0  0  0  0  0  0  0  0  0
    7.8003   -4.0204    0.0000 O   0  0  0  0  0  0  0  0  0  0  0  0
   11.2644   -4.0204    0.0000 O   0  0  0  0  0  0  0  0  0  0  0  0
    9.5323   -5.0204    0.0000 O   0  0  0  0  0  0  0  0  0  0  0  0
    6.9343    3.4796    0.0000 C   0  0  2  0  0  0  0  0  0  0  0  0
    6.9343    2.4796    0.0000 C   0  0  1  0  0  0  0  0  0  0  0  0
    6.0682    3.9796    0.0000 C   0  0  0  0  0  0  0  0  0  0  0  0
    5.2022    3.4796    0.0000 C   0  0  0  0  0  0  0  0  0  0  0  0
    7.8003    1.9796    0.0000 C   0  0  0  0  0  0  0  0  0  0  0  0
    5.2022    2.4796    0.0000 C   0  0  0  0  0  0  0  0  0  0  0  0
    4.3083    4.0143    0.0000 C   0  0  0  0  0  0  0  0  0  0  0  0
    4.3083    1.9450    0.0000 C   0  0  0  0  0  0  0  0  0  0  0  0
    7.8003    0.9796    0.0000 C   0  0  0  0  0  0  0  0  0  0  0  0
    8.6663    2.4796    0.0000 C   0  0  0  0  0  0  0  0  0  0  0  0
    3.4022    3.5004    0.0000 C   0  0  0  0  0  0  0  0  0  0  0  0
    3.4022    2.4588    0.0000 C   0  0  0  0  0  0  0  0  0  0  0  0
    8.6663    0.4796    0.0000 C   0  0  0  0  0  0  0  0  0  0  0  0
    9.5323    1.9796    0.0000 C   0  0  0  0  0  0  0  0  0  0  0  0
    9.5323    0.9796    0.0000 C   0  0  0  0  0  0  0  0  0  0  0  0
    9.5323   -1.0204    0.0000 C   0  0  0  0  0  0  0  0  0  0  0  0
    9.5323   -2.0204    0.0000 C   0  0  0  0  0  0  0  0  0  0  0  0
   10.3984   -2.5204    0.0000 C   0  0  0  0  0  0  0  0  0  0  0  0
    8.6663   -2.5204    0.0000 C   0  0  0  0  0  0  0  0  0  0  0  0
    8.6663   -3.5204    0.0000 C   0  0  0  0  0  0  0  0  0  0  0  0
   10.3984   -3.5204    0.0000 C   0  0  0  0  0  0  0  0  0  0  0  0
    9.5323   -4.0204    0.0000 C   0  0  0  0  0  0  0  0  0  0  0  0
    6.9343    4.0996    0.0000 H   0  0  0  0  0  0  0  0  0  0  0  0
    6.9343    1.8596    0.0000 H   0  0  0  0  0  0  0  0  0  0  0  0
    6.4668    4.4546    0.0000 H   0  0  0  0  0  0  0  0  0  0  0  0
    5.6697    4.4546    0.0000 H   0  0  0  0  0  0  0  0  0  0  0  0
    4.3154    1.3250    0.0000 H   0  0  0  0  0  0  0  0  0  0  0  0
    7.2634    0.6696    0.0000 H   0  0  0  0  0  0  0  0  0  0  0  0
    8.6663    3.0996    0.0000 H   0  0  0  0  0  0  0  0  0  0  0  0
    7.8003    4.5996    0.0000 H   0  0  0  0  0  0  0  0  0  0  0  0
    2.8665    3.8125    0.0000 H   0  0  0  0  0  0  0  0  0  0  0  0
   10.0693    2.2896    0.0000 H   0  0  0  0  0  0  0  0  0  0  0  0
    3.7865    5.3304    0.0000 H   0  0  0  0  0  0  0  0  0  0  0  0
    2.0000    2.2634    0.0000 H   0  0  0  0  0  0  0  0  0  0  0  0
   10.9353    0.7896    0.0000 H   0  0  0  0  0  0  0  0  0  0  0  0
   10.9353   -2.2104    0.0000 H   0  0  0  0  0  0  0  0  0  0  0  0
    8.1294   -2.2104    0.0000 H   0  0  0  0  0  0  0  0  0  0  0  0
    7.2634   -3.7104    0.0000 H   0  0  0  0  0  0  0  0  0  0  0  0
   11.8013   -3.7104    0.0000 H   0  0  0  0  0  0  0  0  0  0  0  0
   10.0693   -5.3304    0.0000 H   0  0  0  0  0  0  0  0  0  0  0  0
  1 12  1  0  0  0  0
  1 16  1  0  0  0  0
 11  2  1  6  0  0  0
  2 40  1  0  0  0  0
  3 17  1  0  0  0  0
  3 43  1  0  0  0  0
  4 23  1  0  0  0  0
  4 26  1  0  0  0  0
  5 22  1  0  0  0  0
  5 44  1  0  0  0  0
  6 25  1  0  0  0  0
  6 45  1  0  0  0  0
  7 26  2  0  0  0  0
  8 30  1  0  0  0  0
  8 48  1  0  0  0  0
  9 31  1  0  0  0  0
  9 49  1  0  0  0  0
 10 32  1  0  0  0  0
 10 50  1  0  0  0  0
 11 12  1  0  0  0  0
 11 13  1  0  0  0  0
 11 33  1  0  0  0  0
 12 15  1  1  0  0  0
 12 34  1  0  0  0  0
 13 14  1  0  0  0  0
 13 35  1  0  0  0  0
 13 36  1  0  0  0  0
 14 16  1  0  0  0  0
 14 17  2  0  0  0  0
 15 19  2  0  0  0  0
 15 20  1  0  0  0  0
 16 18  2  0  0  0  0
 17 21  1  0  0  0  0
 18 22  1  0  0  0  0
 18 37  1  0  0  0  0
 19 23  1  0  0  0  0
 19 38  1  0  0  0  0
 20 24  2  0  0  0  0
 20 39  1  0  0  0  0
 21 22  2  0  0  0  0
 21 41  1  0  0  0  0
 23 25  2  0  0  0  0
 24 25  1  0  0  0  0
 24 42  1  0  0  0  0
 26 27  1  0  0  0  0
 27 28  2  0  0  0  0
 27 29  1  0  0  0  0
 28 31  1  0  0  0  0
 28 46  1  0  0  0  0
 29 30  2  0  0  0  0
 29 47  1  0  0  0  0
 30 32  1  0  0  0  0
 31 32  2  0  0  0  0
M  END
> <PUBCHEM_COMPOUND_CID>
44257105

> <PUBCHEM_COMPOUND_CANONICALIZED>
1

> <PUBCHEM_CACTVS_COMPLEXITY>
649

> <PUBCHEM_CACTVS_HBOND_ACCEPTOR>
10

> <PUBCHEM_CACTVS_HBOND_DONOR>
7

> <PUBCHEM_CACTVS_ROTATABLE_BOND>
4

> <PUBCHEM_CACTVS_SUBSKEYS>
AAADceB4PAAAAAAAAAAAAAAAAAAAAAAAAAA0YMEAAAAAAACRUAAAGgAACAAADBSgmAIwDoAABgCIAiDSCAACCAAkIAAIiAEGiMgNNzKGNRqCeyOlwBULuYfK7PzOIAABCAAIQABAAAIQABCAAAAAAAAAAA==

> <PUBCHEM_IUPAC_OPENEYE_NAME>
[2-hydroxy-5-[(2R,3S)-3,5,7-trihydroxychroman-2-yl]phenyl] 3,4,5-trihydroxybenzoate

> <PUBCHEM_IUPAC_CAS_NAME>
3,4,5-trihydroxybenzoic acid [2-hydroxy-5-[(2R,3S)-3,5,7-trihydroxy-3,4-dihydro-2H-1-benzopyran-2-yl]phenyl] ester

> <PUBCHEM_IUPAC_NAME_MARKUP>
[2-hydroxy-5-[(2<I>R</I>,3<I>S</I>)-3,5,7-trihydroxy-3,4-dihydro-2<I>H</I>-chromen-2-yl]phenyl] 3,4,5-trihydroxybenzoate

> <PUBCHEM_IUPAC_NAME>
[2-hydroxy-5-[(2R,3S)-3,5,7-trihydroxy-3,4-dihydro-2H-chromen-2-yl]phenyl] 3,4,5-trihydroxybenzoate

> <PUBCHEM_IUPAC_SYSTEMATIC_NAME>
[2-oxidanyl-5-[(2R,3S)-3,5,7-tris(oxidanyl)-3,4-dihydro-2H-chromen-2-yl]phenyl] 3,4,5-tris(oxidanyl)benzoate

> <PUBCHEM_IUPAC_TRADITIONAL_NAME>
3,4,5-trihydroxybenzoic acid [2-hydroxy-5-[(2R,3S)-3,5,7-trihydroxychroman-2-yl]phenyl] ester

> <PUBCHEM_IUPAC_INCHI>
InChI=1S/C22H18O10/c23-11-6-14(25)12-8-17(28)21(31-18(12)7-11)9-1-2-13(24)19(5-9)32-22(30)10-3-15(26)20(29)16(27)4-10/h1-7,17,21,23-29H,8H2/t17-,21+/m0/s1

> <PUBCHEM_IUPAC_INCHIKEY>
GNXIIYFUGQWDJG-LAUBAEHRSA-N

> <PUBCHEM_XLOGP3>
1.1

> <PUBCHEM_EXACT_MASS>
442.08999677

> <PUBCHEM_MOLECULAR_FORMULA>
C22H18O10

> <PUBCHEM_MOLECULAR_WEIGHT>
442.4

> <PUBCHEM_OPENEYE_CAN_SMILES>
C1C(C(OC2=CC(=CC(=C21)O)O)C3=CC(=C(C=C3)O)OC(=O)C4=CC(=C(C(=C4)O)O)O)O

> <PUBCHEM_OPENEYE_ISO_SMILES>
C1[C@@H]([C@H](OC2=CC(=CC(=C21)O)O)C3=CC(=C(C=C3)O)OC(=O)C4=CC(=C(C(=C4)O)O)O)O

> <PUBCHEM_CACTVS_TPSA>
177

> <PUBCHEM_MONOISOTOPIC_WEIGHT>
442.08999677

> <PUBCHEM_TOTAL_CHARGE>
0

> <PUBCHEM_HEAVY_ATOM_COUNT>
32

> <PUBCHEM_ATOM_DEF_STEREO_COUNT>
2

> <PUBCHEM_ATOM_UDEF_STEREO_COUNT>
0

> <PUBCHEM_BOND_DEF_STEREO_COUNT>
0

> <PUBCHEM_BOND_UDEF_STEREO_COUNT>
0

> <PUBCHEM_ISOTOPIC_ATOM_COUNT>
0

> <PUBCHEM_COMPONENT_COUNT>
1

> <PUBCHEM_CACTVS_TAUTO_COUNT>
-1

> <PUBCHEM_COORDINATE_TYPE>
1
5
255

> <PUBCHEM_BONDANNOTATIONS>
12  15  5
14  16  8
14  17  8
15  19  8
15  20  8
16  18  8
17  21  8
18  22  8
19  23  8
11  2  6
20  24  8
21  22  8
23  25  8
24  25  8
27  28  8
27  29  8
28  31  8
29  30  8
30  32  8
31  32  8

$$$$
