467299
  -OEChem-02222212172D

 66 70  0     1  0  0  0  0  0999 V2000
    6.8463   -2.5253    0.0000 O   0  0  0  0  0  0  0  0  0  0  0  0
    8.5784   -0.5252    0.0000 O   0  0  0  0  0  0  0  0  0  0  0  0
    5.0979    0.5093    0.0000 O   0  0  0  0  0  0  0  0  0  0  0  0
    3.3162   -2.5494    0.0000 O   0  0  0  0  0  0  0  0  0  0  0  0
   11.1764   -2.0253    0.0000 O   0  0  0  0  0  0  0  0  0  0  0  0
    9.4444   -5.0252    0.0000 O   0  0  0  0  0  0  0  0  0  0  0  0
   11.1764   -4.0252    0.0000 O   0  0  0  0  0  0  0  0  0  0  0  0
    7.7123    0.9748    0.0000 O   0  0  0  0  0  0  0  0  0  0  0  0
    3.3660    0.5294    0.0000 O   0  0  0  0  0  0  0  0  0  0  0  0
   10.3104    3.4748    0.0000 O   0  0  0  0  0  0  0  0  0  0  0  0
   12.0425    0.4748    0.0000 O   0  0  0  0  0  0  0  0  0  0  0  0
   12.0425    2.4747    0.0000 O   0  0  0  0  0  0  0  0  0  0  0  0
    2.5405    4.0392    0.0000 O   0  0  0  0  0  0  0  0  0  0  0  0
    6.0043    3.9991    0.0000 O   0  0  0  0  0  0  0  0  0  0  0  0
    4.2840    5.0191    0.0000 O   0  0  0  0  0  0  0  0  0  0  0  0
    7.7123   -1.0252    0.0000 C   0  0  1  0  0  0  0  0  0  0  0  0
    7.7123   -2.0253    0.0000 C   0  0  1  0  0  0  0  0  0  0  0  0
    6.8463   -0.5252    0.0000 C   0  0  0  0  0  0  0  0  0  0  0  0
    5.9803   -1.0252    0.0000 C   0  0  0  0  0  0  0  0  0  0  0  0
    5.9803   -2.0253    0.0000 C   0  0  0  0  0  0  0  0  0  0  0  0
    8.5784   -2.5253    0.0000 C   0  0  0  0  0  0  0  0  0  0  0  0
    5.0864   -0.4906    0.0000 C   0  0  0  0  0  0  0  0  0  0  0  0
    5.0864   -2.5599    0.0000 C   0  0  0  0  0  0  0  0  0  0  0  0
    8.5784   -3.5252    0.0000 C   0  0  0  0  0  0  0  0  0  0  0  0
    9.4444   -2.0253    0.0000 C   0  0  0  0  0  0  0  0  0  0  0  0
    4.1803   -1.0044    0.0000 C   0  0  0  0  0  0  0  0  0  0  0  0
    4.1803   -2.0461    0.0000 C   0  0  0  0  0  0  0  0  0  0  0  0
    8.5784    0.4748    0.0000 C   0  0  0  0  0  0  0  0  0  0  0  0
   10.3104   -2.5253    0.0000 C   0  0  0  0  0  0  0  0  0  0  0  0
    9.4444   -4.0252    0.0000 C   0  0  0  0  0  0  0  0  0  0  0  0
   10.3104   -3.5252    0.0000 C   0  0  0  0  0  0  0  0  0  0  0  0
    9.4444    0.9748    0.0000 C   0  0  0  0  0  0  0  0  0  0  0  0
    4.2377    1.0193    0.0000 C   0  0  0  0  0  0  0  0  0  0  0  0
   10.3104    0.4748    0.0000 C   0  0  0  0  0  0  0  0  0  0  0  0
    9.4444    1.9748    0.0000 C   0  0  0  0  0  0  0  0  0  0  0  0
    4.2493    2.0193    0.0000 C   0  0  0  0  0  0  0  0  0  0  0  0
   10.3104    2.4747    0.0000 C   0  0  0  0  0  0  0  0  0  0  0  0
   11.1764    0.9748    0.0000 C   0  0  0  0  0  0  0  0  0  0  0  0
   11.1764    1.9748    0.0000 C   0  0  0  0  0  0  0  0  0  0  0  0
    5.1210    2.5092    0.0000 C   0  0  0  0  0  0  0  0  0  0  0  0
    3.3891    2.5292    0.0000 C   0  0  0  0  0  0  0  0  0  0  0  0
    3.4007    3.5292    0.0000 C   0  0  0  0  0  0  0  0  0  0  0  0
    5.1326    3.5092    0.0000 C   0  0  0  0  0  0  0  0  0  0  0  0
    4.2724    4.0191    0.0000 C   0  0  0  0  0  0  0  0  0  0  0  0
    8.2493   -1.3352    0.0000 H   0  0  0  0  0  0  0  0  0  0  0  0
    7.7123   -2.6452    0.0000 H   0  0  0  0  0  0  0  0  0  0  0  0
    7.2448   -0.0503    0.0000 H   0  0  0  0  0  0  0  0  0  0  0  0
    6.4478   -0.0503    0.0000 H   0  0  0  0  0  0  0  0  0  0  0  0
    5.0935   -3.1799    0.0000 H   0  0  0  0  0  0  0  0  0  0  0  0
    8.0414   -3.8352    0.0000 H   0  0  0  0  0  0  0  0  0  0  0  0
    9.4444   -1.4053    0.0000 H   0  0  0  0  0  0  0  0  0  0  0  0
    3.6446   -0.6924    0.0000 H   0  0  0  0  0  0  0  0  0  0  0  0
    2.7781   -2.2415    0.0000 H   0  0  0  0  0  0  0  0  0  0  0  0
   10.3104   -0.1452    0.0000 H   0  0  0  0  0  0  0  0  0  0  0  0
    8.9075    2.2848    0.0000 H   0  0  0  0  0  0  0  0  0  0  0  0
   11.7134   -2.3352    0.0000 H   0  0  0  0  0  0  0  0  0  0  0  0
    8.9075   -5.3352    0.0000 H   0  0  0  0  0  0  0  0  0  0  0  0
   11.1764   -4.6452    0.0000 H   0  0  0  0  0  0  0  0  0  0  0  0
    5.6544    2.1930    0.0000 H   0  0  0  0  0  0  0  0  0  0  0  0
    2.8486    2.2255    0.0000 H   0  0  0  0  0  0  0  0  0  0  0  0
    9.7735    3.7848    0.0000 H   0  0  0  0  0  0  0  0  0  0  0  0
   12.5794    0.7848    0.0000 H   0  0  0  0  0  0  0  0  0  0  0  0
   12.0425    3.0948    0.0000 H   0  0  0  0  0  0  0  0  0  0  0  0
    2.0000    3.7354    0.0000 H   0  0  0  0  0  0  0  0  0  0  0  0
    6.0115    4.6191    0.0000 H   0  0  0  0  0  0  0  0  0  0  0  0
    3.7507    5.3352    0.0000 H   0  0  0  0  0  0  0  0  0  0  0  0
  1 17  1  0  0  0  0
  1 20  1  0  0  0  0
 16  2  1  1  0  0  0
  2 28  1  0  0  0  0
  3 22  1  0  0  0  0
  3 33  1  0  0  0  0
  4 27  1  0  0  0  0
  4 53  1  0  0  0  0
  5 29  1  0  0  0  0
  5 56  1  0  0  0  0
  6 30  1  0  0  0  0
  6 57  1  0  0  0  0
  7 31  1  0  0  0  0
  7 58  1  0  0  0  0
  8 28  2  0  0  0  0
  9 33  2  0  0  0  0
 10 37  1  0  0  0  0
 10 61  1  0  0  0  0
 11 38  1  0  0  0  0
 11 62  1  0  0  0  0
 12 39  1  0  0  0  0
 12 63  1  0  0  0  0
 13 42  1  0  0  0  0
 13 64  1  0  0  0  0
 14 43  1  0  0  0  0
 14 65  1  0  0  0  0
 15 44  1  0  0  0  0
 15 66  1  0  0  0  0
 16 17  1  0  0  0  0
 16 18  1  0  0  0  0
 16 45  1  0  0  0  0
 17 21  1  1  0  0  0
 17 46  1  0  0  0  0
 18 19  1  0  0  0  0
 18 47  1  0  0  0  0
 18 48  1  0  0  0  0
 19 20  2  0  0  0  0
 19 22  1  0  0  0  0
 20 23  1  0  0  0  0
 21 24  2  0  0  0  0
 21 25  1  0  0  0  0
 22 26  2  0  0  0  0
 23 27  2  0  0  0  0
 23 49  1  0  0  0  0
 24 30  1  0  0  0  0
 24 50  1  0  0  0  0
 25 29  2  0  0  0  0
 25 51  1  0  0  0  0
 26 27  1  0  0  0  0
 26 52  1  0  0  0  0
 28 32  1  0  0  0  0
 29 31  1  0  0  0  0
 30 31  2  0  0  0  0
 32 34  2  0  0  0  0
 32 35  1  0  0  0  0
 33 36  1  0  0  0  0
 34 38  1  0  0  0  0
 34 54  1  0  0  0  0
 35 37  2  0  0  0  0
 35 55  1  0  0  0  0
 36 40  2  0  0  0  0
 36 41  1  0  0  0  0
 37 39  1  0  0  0  0
 38 39  2  0  0  0  0
 40 43  1  0  0  0  0
 40 59  1  0  0  0  0
 41 42  2  0  0  0  0
 41 60  1  0  0  0  0
 42 44  1  0  0  0  0
 43 44  2  0  0  0  0
M  END
> <PUBCHEM_COMPOUND_CID>
467299

> <PUBCHEM_COMPOUND_CANONICALIZED>
1

> <PUBCHEM_CACTVS_COMPLEXITY>
977

> <PUBCHEM_CACTVS_HBOND_ACCEPTOR>
15

> <PUBCHEM_CACTVS_HBOND_DONOR>
10

> <PUBCHEM_CACTVS_ROTATABLE_BOND>
7

> <PUBCHEM_CACTVS_SUBSKEYS>
AAADceB4PAAAAAAAAAAAAAAAAAAAAAAAAAA0YMGCAAAAAACRVAAAGgAACAAADBSgmAIwDoAABgCIAiDSCAACCAAkIAAAiAEGiMgNJzKGNRqCeyGlwBULuYfK7PzOIAABCAAIQABAAAIQABCAAAAAAAAAAA==

> <PUBCHEM_IUPAC_OPENEYE_NAME>
[(2R,3R)-7-hydroxy-5-(3,4,5-trihydroxybenzoyl)oxy-2-(3,4,5-trihydroxyphenyl)chroman-3-yl] 3,4,5-trihydroxybenzoate

> <PUBCHEM_IUPAC_CAS_NAME>
3,4,5-trihydroxybenzoic acid [(2R,3R)-7-hydroxy-5-[oxo-(3,4,5-trihydroxyphenyl)methoxy]-2-(3,4,5-trihydroxyphenyl)-3,4-dihydro-2H-1-benzopyran-3-yl] ester

> <PUBCHEM_IUPAC_NAME_MARKUP>
[(2<I>R</I>,3<I>R</I>)-7-hydroxy-5-(3,4,5-trihydroxybenzoyl)oxy-2-(3,4,5-trihydroxyphenyl)-3,4-dihydro-2<I>H</I>-chromen-3-yl] 3,4,5-trihydroxybenzoate

> <PUBCHEM_IUPAC_NAME>
[(2R,3R)-7-hydroxy-5-(3,4,5-trihydroxybenzoyl)oxy-2-(3,4,5-trihydroxyphenyl)-3,4-dihydro-2H-chromen-3-yl] 3,4,5-trihydroxybenzoate

> <PUBCHEM_IUPAC_SYSTEMATIC_NAME>
[(2R,3R)-7-oxidanyl-2-[3,4,5-tris(oxidanyl)phenyl]-5-[3,4,5-tris(oxidanyl)phenyl]carbonyloxy-3,4-dihydro-2H-chromen-3-yl] 3,4,5-tris(oxidanyl)benzoate

> <PUBCHEM_IUPAC_TRADITIONAL_NAME>
3,4,5-trihydroxybenzoic acid [(2R,3R)-5-galloyloxy-7-hydroxy-2-(3,4,5-trihydroxyphenyl)chroman-3-yl] ester

> <PUBCHEM_IUPAC_INCHI>
InChI=1S/C29H22O15/c30-13-7-21-14(22(8-13)43-28(40)11-3-17(33)25(38)18(34)4-11)9-23(27(42-21)10-1-15(31)24(37)16(32)2-10)44-29(41)12-5-19(35)26(39)20(36)6-12/h1-8,23,27,30-39H,9H2/t23-,27-/m1/s1

> <PUBCHEM_IUPAC_INCHIKEY>
RKUDRJTZBDEGNP-YIXXDRMTSA-N

> <PUBCHEM_XLOGP3_AA>
2.9

> <PUBCHEM_EXACT_MASS>
610.09586999

> <PUBCHEM_MOLECULAR_FORMULA>
C29H22O15

> <PUBCHEM_MOLECULAR_WEIGHT>
610.5

> <PUBCHEM_OPENEYE_CAN_SMILES>
C1C(C(OC2=C1C(=CC(=C2)O)OC(=O)C3=CC(=C(C(=C3)O)O)O)C4=CC(=C(C(=C4)O)O)O)OC(=O)C5=CC(=C(C(=C5)O)O)O

> <PUBCHEM_OPENEYE_ISO_SMILES>
C1[C@H]([C@H](OC2=C1C(=CC(=C2)O)OC(=O)C3=CC(=C(C(=C3)O)O)O)C4=CC(=C(C(=C4)O)O)O)OC(=O)C5=CC(=C(C(=C5)O)O)O

> <PUBCHEM_CACTVS_TPSA>
264

> <PUBCHEM_MONOISOTOPIC_WEIGHT>
610.09586999

> <PUBCHEM_TOTAL_CHARGE>
0

> <PUBCHEM_HEAVY_ATOM_COUNT>
44

> <PUBCHEM_ATOM_DEF_STEREO_COUNT>
2

> <PUBCHEM_ATOM_UDEF_STEREO_COUNT>
0

> <PUBCHEM_BOND_DEF_STEREO_COUNT>
0

> <PUBCHEM_BOND_UDEF_STEREO_COUNT>
0

> <PUBCHEM_ISOTOPIC_ATOM_COUNT>
0

> <PUBCHEM_COMPONENT_COUNT>
1

> <PUBCHEM_CACTVS_TAUTO_COUNT>
-1

> <PUBCHEM_COORDINATE_TYPE>
1
5
255

> <PUBCHEM_BONDANNOTATIONS>
17  21  5
19  20  8
19  22  8
16  2  5
20  23  8
21  24  8
21  25  8
22  26  8
23  27  8
24  30  8
25  29  8
26  27  8
29  31  8
30  31  8
32  34  8
32  35  8
34  38  8
35  37  8
36  40  8
36  41  8
37  39  8
38  39  8
40  43  8
41  42  8
42  44  8
43  44  8

$$$$
