71307578
  -OEChem-02232223272D

 83 89  0     1  0  0  0  0  0999 V2000
    7.6432    1.0909    0.0000 O   0  0  0  0  0  0  0  0  0  0  0  0
    5.9237   -0.9199    0.0000 O   0  0  0  0  0  0  0  0  0  0  0  0
   11.4007    1.0218    0.0000 O   0  0  0  0  0  0  0  0  0  0  0  0
    9.0988   -3.6212    0.0000 O   0  0  0  0  0  0  0  0  0  0  0  0
    8.8086    0.4918    0.0000 O   0  0  0  0  0  0  0  0  0  0  0  0
   10.5405   -3.5573    0.0000 O   0  0  0  0  0  0  0  0  0  0  0  0
   12.3222   -2.5469    0.0000 O   0  0  0  0  0  0  0  0  0  0  0  0
    4.3819    2.3675    0.0000 O   0  0  0  0  0  0  0  0  0  0  0  0
    7.1409    4.5852    0.0000 O   0  0  0  0  0  0  0  0  0  0  0  0
    4.3114   -0.2871    0.0000 O   0  0  0  0  0  0  0  0  0  0  0  0
    9.6119    4.0328    0.0000 O   0  0  0  0  0  0  0  0  0  0  0  0
   13.1513    4.0874    0.0000 O   0  0  0  0  0  0  0  0  0  0  0  0
    5.4512   -4.4943    0.0000 O   0  0  0  0  0  0  0  0  0  0  0  0
    2.2265   -3.2287    0.0000 O   0  0  0  0  0  0  0  0  0  0  0  0
    3.4735   -4.7924    0.0000 O   0  0  0  0  0  0  0  0  0  0  0  0
    7.9014   -0.6218    0.0000 C   0  0  3  0  0  0  0  0  0  0  0  0
    7.2779    0.1601    0.0000 C   0  0  2  0  0  0  0  0  0  0  0  0
    8.8763   -0.3993    0.0000 C   0  0  0  0  0  0  0  0  0  0  0  0
    7.4675   -1.5227    0.0000 C   0  0  0  0  0  0  0  0  0  0  0  0
    6.2890    0.0110    0.0000 C   0  0  1  0  0  0  0  0  0  0  0  0
    9.6581   -1.0227    0.0000 C   0  0  0  0  0  0  0  0  0  0  0  0
    7.9014   -2.4237    0.0000 C   0  0  0  0  0  0  0  0  0  0  0  0
    5.6655    0.7928    0.0000 C   0  0  0  0  0  0  0  0  0  0  0  0
   10.5520   -0.4881    0.0000 C   0  0  0  0  0  0  0  0  0  0  0  0
    9.6581   -2.0227    0.0000 C   0  0  0  0  0  0  0  0  0  0  0  0
   10.5405    0.5119    0.0000 C   0  0  2  0  0  0  0  0  0  0  0  0
    8.8763   -2.6462    0.0000 C   0  0  0  0  0  0  0  0  0  0  0  0
    6.0309    1.7237    0.0000 C   0  0  0  0  0  0  0  0  0  0  0  0
    7.0197    1.8728    0.0000 C   0  0  0  0  0  0  0  0  0  0  0  0
    9.6687    1.0018    0.0000 C   0  0  1  0  0  0  0  0  0  0  0  0
   10.5520   -2.5574    0.0000 C   0  0  0  0  0  0  0  0  0  0  0  0
   11.4581   -1.0019    0.0000 C   0  0  0  0  0  0  0  0  0  0  0  0
    9.6572    2.0017    0.0000 C   0  0  0  0  0  0  0  0  0  0  0  0
   11.4581   -2.0436    0.0000 C   0  0  0  0  0  0  0  0  0  0  0  0
    5.3690    2.5280    0.0000 C   0  0  0  0  0  0  0  0  0  0  0  0
    7.4152    2.8364    0.0000 C   0  0  0  0  0  0  0  0  0  0  0  0
   10.5174    2.5117    0.0000 C   0  0  0  0  0  0  0  0  0  0  0  0
   11.3891    2.0218    0.0000 C   0  0  0  0  0  0  0  0  0  0  0  0
    5.7420    3.5005    0.0000 C   0  0  0  0  0  0  0  0  0  0  0  0
    4.9348   -1.0689    0.0000 C   0  0  0  0  0  0  0  0  0  0  0  0
    6.7720    3.6558    0.0000 C   0  0  0  0  0  0  0  0  0  0  0  0
   10.4893    3.5530    0.0000 C   0  0  0  0  0  0  0  0  0  0  0  0
   12.2932    2.5391    0.0000 C   0  0  0  0  0  0  0  0  0  0  0  0
    4.5695   -1.9998    0.0000 C   0  0  0  0  0  0  0  0  0  0  0  0
   11.3811    4.0911    0.0000 C   0  0  0  0  0  0  0  0  0  0  0  0
   12.2892    3.5807    0.0000 C   0  0  0  0  0  0  0  0  0  0  0  0
    3.5807   -2.1488    0.0000 C   0  0  0  0  0  0  0  0  0  0  0  0
    5.1930   -2.7816    0.0000 C   0  0  0  0  0  0  0  0  0  0  0  0
    4.8277   -3.7125    0.0000 C   0  0  0  0  0  0  0  0  0  0  0  0
    3.2153   -3.0797    0.0000 C   0  0  0  0  0  0  0  0  0  0  0  0
    3.8388   -3.8615    0.0000 C   0  0  0  0  0  0  0  0  0  0  0  0
    7.2852   -0.6912    0.0000 H   0  0  0  0  0  0  0  0  0  0  0  0
    8.1184    0.2867    0.0000 H   0  0  0  0  0  0  0  0  0  0  0  0
    9.3610   -0.0127    0.0000 H   0  0  0  0  0  0  0  0  0  0  0  0
    8.6073    0.1593    0.0000 H   0  0  0  0  0  0  0  0  0  0  0  0
    6.9827   -1.1362    0.0000 H   0  0  0  0  0  0  0  0  0  0  0  0
    6.9827   -1.9093    0.0000 H   0  0  0  0  0  0  0  0  0  0  0  0
    6.6756   -0.4737    0.0000 H   0  0  0  0  0  0  0  0  0  0  0  0
    7.2969   -2.5617    0.0000 H   0  0  0  0  0  0  0  0  0  0  0  0
    7.9014   -3.0437    0.0000 H   0  0  0  0  0  0  0  0  0  0  0  0
    5.1365    1.1161    0.0000 H   0  0  0  0  0  0  0  0  0  0  0  0
    5.2553    0.3280    0.0000 H   0  0  0  0  0  0  0  0  0  0  0  0
   11.2815    0.0954    0.0000 H   0  0  0  0  0  0  0  0  0  0  0  0
    9.1282    1.3056    0.0000 H   0  0  0  0  0  0  0  0  0  0  0  0
   11.9939   -0.6899    0.0000 H   0  0  0  0  0  0  0  0  0  0  0  0
    9.4384    2.5819    0.0000 H   0  0  0  0  0  0  0  0  0  0  0  0
    9.0479    1.8870    0.0000 H   0  0  0  0  0  0  0  0  0  0  0  0
    8.0293    2.9217    0.0000 H   0  0  0  0  0  0  0  0  0  0  0  0
    5.3536    3.9838    0.0000 H   0  0  0  0  0  0  0  0  0  0  0  0
    8.2681    0.7956    0.0000 H   0  0  0  0  0  0  0  0  0  0  0  0
   11.0738   -3.8735    0.0000 H   0  0  0  0  0  0  0  0  0  0  0  0
   12.8301    2.2291    0.0000 H   0  0  0  0  0  0  0  0  0  0  0  0
   12.8603   -2.2390    0.0000 H   0  0  0  0  0  0  0  0  0  0  0  0
    3.9898    2.8478    0.0000 H   0  0  0  0  0  0  0  0  0  0  0  0
   11.3716    4.7110    0.0000 H   0  0  0  0  0  0  0  0  0  0  0  0
    6.7562    5.0714    0.0000 H   0  0  0  0  0  0  0  0  0  0  0  0
    3.1941   -1.6641    0.0000 H   0  0  0  0  0  0  0  0  0  0  0  0
    5.8061   -2.6892    0.0000 H   0  0  0  0  0  0  0  0  0  0  0  0
    9.5976    4.6526    0.0000 H   0  0  0  0  0  0  0  0  0  0  0  0
   13.1465    4.7074    0.0000 H   0  0  0  0  0  0  0  0  0  0  0  0
    5.2246   -5.0714    0.0000 H   0  0  0  0  0  0  0  0  0  0  0  0
    2.0000   -3.8059    0.0000 H   0  0  0  0  0  0  0  0  0  0  0  0
    2.8604   -4.8848    0.0000 H   0  0  0  0  0  0  0  0  0  0  0  0
  1 17  1  0  0  0  0
  1 29  1  0  0  0  0
 20  2  1  6  0  0  0
  2 40  1  0  0  0  0
  3 26  1  0  0  0  0
  3 38  1  0  0  0  0
  4 27  2  0  0  0  0
 30  5  1  6  0  0  0
  5 70  1  0  0  0  0
  6 31  1  0  0  0  0
  6 71  1  0  0  0  0
  7 34  1  0  0  0  0
  7 73  1  0  0  0  0
  8 35  1  0  0  0  0
  8 74  1  0  0  0  0
  9 41  1  0  0  0  0
  9 76  1  0  0  0  0
 10 40  2  0  0  0  0
 11 42  1  0  0  0  0
 11 79  1  0  0  0  0
 12 46  1  0  0  0  0
 12 80  1  0  0  0  0
 13 49  1  0  0  0  0
 13 81  1  0  0  0  0
 14 50  1  0  0  0  0
 14 82  1  0  0  0  0
 15 51  1  0  0  0  0
 15 83  1  0  0  0  0
 16 17  1  0  0  0  0
 16 18  1  0  0  0  0
 16 19  1  0  0  0  0
 16 52  1  0  0  0  0
 17 20  1  0  0  0  0
 17 53  1  1  0  0  0
 18 21  1  0  0  0  0
 18 54  1  0  0  0  0
 18 55  1  0  0  0  0
 19 22  1  0  0  0  0
 19 56  1  0  0  0  0
 19 57  1  0  0  0  0
 20 23  1  0  0  0  0
 20 58  1  0  0  0  0
 21 24  1  0  0  0  0
 21 25  2  0  0  0  0
 22 27  1  0  0  0  0
 22 59  1  0  0  0  0
 22 60  1  0  0  0  0
 23 28  1  0  0  0  0
 23 61  1  0  0  0  0
 23 62  1  0  0  0  0
 24 26  1  0  0  0  0
 24 32  2  0  0  0  0
 25 27  1  0  0  0  0
 25 31  1  0  0  0  0
 26 30  1  0  0  0  0
 26 63  1  1  0  0  0
 28 29  1  0  0  0  0
 28 35  2  0  0  0  0
 29 36  2  0  0  0  0
 30 33  1  0  0  0  0
 30 64  1  0  0  0  0
 31 34  2  0  0  0  0
 32 34  1  0  0  0  0
 32 65  1  0  0  0  0
 33 37  1  0  0  0  0
 33 66  1  0  0  0  0
 33 67  1  0  0  0  0
 35 39  1  0  0  0  0
 36 41  1  0  0  0  0
 36 68  1  0  0  0  0
 37 38  1  0  0  0  0
 37 42  2  0  0  0  0
 38 43  2  0  0  0  0
 39 41  2  0  0  0  0
 39 69  1  0  0  0  0
 40 44  1  0  0  0  0
 42 45  1  0  0  0  0
 43 46  1  0  0  0  0
 43 72  1  0  0  0  0
 44 47  2  0  0  0  0
 44 48  1  0  0  0  0
 45 46  2  0  0  0  0
 45 75  1  0  0  0  0
 47 50  1  0  0  0  0
 47 77  1  0  0  0  0
 48 49  2  0  0  0  0
 48 78  1  0  0  0  0
 49 51  1  0  0  0  0
 50 51  2  0  0  0  0
M  END
> <PUBCHEM_COMPOUND_CID>
71307578

> <PUBCHEM_COMPOUND_CANONICALIZED>
1

> <PUBCHEM_CACTVS_COMPLEXITY>
1240

> <PUBCHEM_CACTVS_HBOND_ACCEPTOR>
15

> <PUBCHEM_CACTVS_HBOND_DONOR>
10

> <PUBCHEM_CACTVS_ROTATABLE_BOND>
5

> <PUBCHEM_CACTVS_SUBSKEYS>
AAADcfB8PAAAAAAAAAAAAAAAAAAAAAAAAAA0aMGCBgAAAACRVAAAGgAACAAADRSgmAIwDoAABgCIAqDSCAACCAAkIAAAiAEGiMgNNzaGNRqCeWGl4BULuYfK7PzOoAADCAAYQABAAAYQADCAAAAAAAAAAA==

> <PUBCHEM_IUPAC_OPENEYE_NAME>
[(2R,3R)-2-[1,2-dihydroxy-9-oxo-4-[(2R,3R)-3,5,7-trihydroxychroman-2-yl]-5,6,7,8-tetrahydrobenzo[7]annulen-6-yl]-5,7-dihydroxy-chroman-3-yl] 3,4,5-trihydroxybenzoate

> <PUBCHEM_IUPAC_CAS_NAME>
3,4,5-trihydroxybenzoic acid [(2R,3R)-2-[1,2-dihydroxy-9-oxo-4-[(2R,3R)-3,5,7-trihydroxy-3,4-dihydro-2H-1-benzopyran-2-yl]-5,6,7,8-tetrahydrobenzo[7]annulen-6-yl]-5,7-dihydroxy-3,4-dihydro-2H-1-benzopyran-3-yl] ester

> <PUBCHEM_IUPAC_NAME_MARKUP>
[(2<I>R</I>,3<I>R</I>)-2-[1,2-dihydroxy-9-oxo-4-[(2<I>R</I>,3<I>R</I>)-3,5,7-trihydroxy-3,4-dihydro-2<I>H</I>-chromen-2-yl]-5,6,7,8-tetrahydrobenzo[7]annulen-6-yl]-5,7-dihydroxy-3,4-dihydro-2<I>H</I>-chromen-3-yl] 3,4,5-trihydroxybenzoate

> <PUBCHEM_IUPAC_NAME>
[(2R,3R)-2-[1,2-dihydroxy-9-oxo-4-[(2R,3R)-3,5,7-trihydroxy-3,4-dihydro-2H-chromen-2-yl]-5,6,7,8-tetrahydrobenzo[7]annulen-6-yl]-5,7-dihydroxy-3,4-dihydro-2H-chromen-3-yl] 3,4,5-trihydroxybenzoate

> <PUBCHEM_IUPAC_SYSTEMATIC_NAME>
[(2R,3R)-2-[1,2-bis(oxidanyl)-9-oxidanylidene-4-[(2R,3R)-3,5,7-tris(oxidanyl)-3,4-dihydro-2H-chromen-2-yl]-5,6,7,8-tetrahydrobenzo[7]annulen-6-yl]-5,7-bis(oxidanyl)-3,4-dihydro-2H-chromen-3-yl] 3,4,5-tris(oxidanyl)benzoate

> <PUBCHEM_IUPAC_TRADITIONAL_NAME>
3,4,5-trihydroxybenzoic acid [(2R,3R)-2-[1,2-dihydroxy-9-keto-4-[(2R,3R)-3,5,7-trihydroxychroman-2-yl]-5,6,7,8-tetrahydrobenzocyclohepten-6-yl]-5,7-dihydroxy-chroman-3-yl] ester

> <PUBCHEM_IUPAC_INCHI>
InChI=1S/C36H32O15/c37-15-6-22(40)19-11-27(45)35(50-28(19)8-15)18-10-26(44)33(47)31-17(18)3-13(1-2-21(31)39)34-30(12-20-23(41)7-16(38)9-29(20)49-34)51-36(48)14-4-24(42)32(46)25(43)5-14/h4-10,13,27,30,34-35,37-38,40-47H,1-3,11-12H2/t13?,27-,30-,34-,35-/m1/s1

> <PUBCHEM_IUPAC_INCHIKEY>
ODDFMQLXQNKFDP-TVKYVOJTSA-N

> <PUBCHEM_XLOGP3_AA>
3.9

> <PUBCHEM_EXACT_MASS>
704.17412031

> <PUBCHEM_MOLECULAR_FORMULA>
C36H32O15

> <PUBCHEM_MOLECULAR_WEIGHT>
704.6

> <PUBCHEM_OPENEYE_CAN_SMILES>
C1CC(=O)C2=C(CC1C3C(CC4=C(C=C(C=C4O3)O)O)OC(=O)C5=CC(=C(C(=C5)O)O)O)C(=CC(=C2O)O)C6C(CC7=C(C=C(C=C7O6)O)O)O

> <PUBCHEM_OPENEYE_ISO_SMILES>
C1CC(=O)C2=C(CC1[C@@H]3[C@@H](CC4=C(C=C(C=C4O3)O)O)OC(=O)C5=CC(=C(C(=C5)O)O)O)C(=CC(=C2O)O)[C@@H]6[C@@H](CC7=C(C=C(C=C7O6)O)O)O

> <PUBCHEM_CACTVS_TPSA>
264

> <PUBCHEM_MONOISOTOPIC_WEIGHT>
704.17412031

> <PUBCHEM_TOTAL_CHARGE>
0

> <PUBCHEM_HEAVY_ATOM_COUNT>
51

> <PUBCHEM_ATOM_DEF_STEREO_COUNT>
4

> <PUBCHEM_ATOM_UDEF_STEREO_COUNT>
1

> <PUBCHEM_BOND_DEF_STEREO_COUNT>
0

> <PUBCHEM_BOND_UDEF_STEREO_COUNT>
0

> <PUBCHEM_ISOTOPIC_ATOM_COUNT>
0

> <PUBCHEM_COMPONENT_COUNT>
1

> <PUBCHEM_CACTVS_TAUTO_COUNT>
-1

> <PUBCHEM_COORDINATE_TYPE>
1
5
255

> <PUBCHEM_BONDANNOTATIONS>
16  19  3
17  53  5
20  2  6
21  24  8
21  25  8
24  32  8
25  31  8
26  63  5
28  29  8
28  35  8
29  36  8
31  34  8
32  34  8
35  39  8
36  41  8
37  38  8
37  42  8
38  43  8
39  41  8
42  45  8
43  46  8
44  47  8
44  48  8
45  46  8
47  50  8
48  49  8
49  51  8
30  5  6
50  51  8

$$$$
