467317
  -OEChem-02232223242D

 70 75  0     1  0  0  0  0  0999 V2000
    6.0682    1.0567    0.0000 O   0  0  0  0  0  0  0  0  0  0  0  0
    9.1271   -1.0567    0.0000 O   0  0  0  0  0  0  0  0  0  0  0  0
    7.8003    3.0567    0.0000 O   0  0  0  0  0  0  0  0  0  0  0  0
    7.3952   -3.0567    0.0000 O   0  0  0  0  0  0  0  0  0  0  0  0
    9.5879   -0.6700    0.0000 O   0  0  0  0  0  0  0  0  0  0  0  0
    6.5290    1.4434    0.0000 O   0  0  0  0  0  0  0  0  0  0  0  0
    4.3198    4.0913    0.0000 O   0  0  0  0  0  0  0  0  0  0  0  0
   10.8755   -4.0913    0.0000 O   0  0  0  0  0  0  0  0  0  0  0  0
   10.1895    2.7415    0.0000 O   0  0  0  0  0  0  0  0  0  0  0  0
    4.7970   -1.5567    0.0000 O   0  0  0  0  0  0  0  0  0  0  0  0
   10.8735    0.8621    0.0000 O   0  0  0  0  0  0  0  0  0  0  0  0
    4.7970    0.4434    0.0000 O   0  0  0  0  0  0  0  0  0  0  0  0
    2.5381    1.0325    0.0000 O   0  0  0  0  0  0  0  0  0  0  0  0
   12.6573   -1.0325    0.0000 O   0  0  0  0  0  0  0  0  0  0  0  0
    6.9343    1.5567    0.0000 C   0  0  1  0  0  0  0  0  0  0  0  0
    8.2611   -1.5567    0.0000 C   0  0  1  0  0  0  0  0  0  0  0  0
    6.9343    2.5567    0.0000 C   0  0  1  0  0  0  0  0  0  0  0  0
    8.2611   -2.5567    0.0000 C   0  0  1  0  0  0  0  0  0  0  0  0
    7.9191    1.3830    0.0000 C   0  0  0  0  0  0  0  0  0  0  0  0
    7.3952   -1.0567    0.0000 C   0  0  0  0  0  0  0  0  0  0  0  0
    6.0682    3.0567    0.0000 C   0  0  0  0  0  0  0  0  0  0  0  0
    9.1271   -3.0567    0.0000 C   0  0  0  0  0  0  0  0  0  0  0  0
    8.2611    0.4433    0.0000 C   0  0  0  0  0  0  0  0  0  0  0  0
    7.3952   -0.0567    0.0000 C   0  0  0  0  0  0  0  0  0  0  0  0
    5.2022    2.5567    0.0000 C   0  0  0  0  0  0  0  0  0  0  0  0
    9.9932   -2.5567    0.0000 C   0  0  0  0  0  0  0  0  0  0  0  0
    5.2022    1.5567    0.0000 C   0  0  0  0  0  0  0  0  0  0  0  0
    9.9932   -1.5567    0.0000 C   0  0  0  0  0  0  0  0  0  0  0  0
    8.5619    2.1491    0.0000 C   0  0  0  0  0  0  0  0  0  0  0  0
    6.5292   -1.5567    0.0000 C   0  0  0  0  0  0  0  0  0  0  0  0
    9.2459    0.2697    0.0000 C   0  0  0  0  0  0  0  0  0  0  0  0
    6.5291    0.4434    0.0000 C   0  0  0  0  0  0  0  0  0  0  0  0
    4.3083    3.0913    0.0000 C   0  0  0  0  0  0  0  0  0  0  0  0
   10.8871   -3.0913    0.0000 C   0  0  0  0  0  0  0  0  0  0  0  0
    9.5467    1.9754    0.0000 C   0  0  0  0  0  0  0  0  0  0  0  0
    5.6631   -1.0567    0.0000 C   0  0  0  0  0  0  0  0  0  0  0  0
    9.8887    1.0357    0.0000 C   0  0  0  0  0  0  0  0  0  0  0  0
    5.6630   -0.0566    0.0000 C   0  0  0  0  0  0  0  0  0  0  0  0
    4.3083    1.0220    0.0000 C   0  0  0  0  0  0  0  0  0  0  0  0
   10.8871   -1.0220    0.0000 C   0  0  0  0  0  0  0  0  0  0  0  0
    3.4022    2.5775    0.0000 C   0  0  0  0  0  0  0  0  0  0  0  0
   11.7932   -2.5775    0.0000 C   0  0  0  0  0  0  0  0  0  0  0  0
    3.4022    1.5358    0.0000 C   0  0  0  0  0  0  0  0  0  0  0  0
   11.7932   -1.5358    0.0000 C   0  0  0  0  0  0  0  0  0  0  0  0
    7.0819    0.7196    0.0000 H   0  0  0  0  0  0  0  0  0  0  0  0
    8.2611   -0.7067    0.0000 H   0  0  0  0  0  0  0  0  0  0  0  0
    6.9343    3.1767    0.0000 H   0  0  0  0  0  0  0  0  0  0  0  0
    7.7242   -2.2467    0.0000 H   0  0  0  0  0  0  0  0  0  0  0  0
    6.4668    3.5316    0.0000 H   0  0  0  0  0  0  0  0  0  0  0  0
    5.6697    3.5316    0.0000 H   0  0  0  0  0  0  0  0  0  0  0  0
    8.7286   -3.5316    0.0000 H   0  0  0  0  0  0  0  0  0  0  0  0
    9.5257   -3.5316    0.0000 H   0  0  0  0  0  0  0  0  0  0  0  0
    8.3498    2.7317    0.0000 H   0  0  0  0  0  0  0  0  0  0  0  0
    6.5292   -2.1767    0.0000 H   0  0  0  0  0  0  0  0  0  0  0  0
    7.8003    3.6767    0.0000 H   0  0  0  0  0  0  0  0  0  0  0  0
    7.3952   -3.6767    0.0000 H   0  0  0  0  0  0  0  0  0  0  0  0
    4.3154    0.4021    0.0000 H   0  0  0  0  0  0  0  0  0  0  0  0
   10.8799   -0.4021    0.0000 H   0  0  0  0  0  0  0  0  0  0  0  0
    2.8665    2.8896    0.0000 H   0  0  0  0  0  0  0  0  0  0  0  0
   12.3289   -2.8896    0.0000 H   0  0  0  0  0  0  0  0  0  0  0  0
   10.1985   -0.7777    0.0000 H   0  0  0  0  0  0  0  0  0  0  0  0
    5.9921    1.7534    0.0000 H   0  0  0  0  0  0  0  0  0  0  0  0
    3.7865    4.4074    0.0000 H   0  0  0  0  0  0  0  0  0  0  0  0
   11.4089   -4.4074    0.0000 H   0  0  0  0  0  0  0  0  0  0  0  0
    9.9774    3.3241    0.0000 H   0  0  0  0  0  0  0  0  0  0  0  0
    4.7970   -2.1767    0.0000 H   0  0  0  0  0  0  0  0  0  0  0  0
   11.2720    1.3370    0.0000 H   0  0  0  0  0  0  0  0  0  0  0  0
    4.2600    0.1334    0.0000 H   0  0  0  0  0  0  0  0  0  0  0  0
    2.0000    1.3404    0.0000 H   0  0  0  0  0  0  0  0  0  0  0  0
   13.1954   -1.3404    0.0000 H   0  0  0  0  0  0  0  0  0  0  0  0
  1 15  1  0  0  0  0
  1 27  1  0  0  0  0
  2 16  1  0  0  0  0
  2 28  1  0  0  0  0
 17  3  1  1  0  0  0
  3 55  1  0  0  0  0
 18  4  1  1  0  0  0
  4 56  1  0  0  0  0
  5 31  1  0  0  0  0
  5 61  1  0  0  0  0
  6 32  1  0  0  0  0
  6 62  1  0  0  0  0
  7 33  1  0  0  0  0
  7 63  1  0  0  0  0
  8 34  1  0  0  0  0
  8 64  1  0  0  0  0
  9 35  1  0  0  0  0
  9 65  1  0  0  0  0
 10 36  1  0  0  0  0
 10 66  1  0  0  0  0
 11 37  1  0  0  0  0
 11 67  1  0  0  0  0
 12 38  1  0  0  0  0
 12 68  1  0  0  0  0
 13 43  1  0  0  0  0
 13 69  1  0  0  0  0
 14 44  1  0  0  0  0
 14 70  1  0  0  0  0
 15 17  1  0  0  0  0
 15 19  1  0  0  0  0
 15 45  1  6  0  0  0
 16 18  1  0  0  0  0
 16 20  1  0  0  0  0
 16 46  1  6  0  0  0
 17 21  1  0  0  0  0
 17 47  1  0  0  0  0
 18 22  1  0  0  0  0
 18 48  1  0  0  0  0
 19 23  1  0  0  0  0
 19 29  2  0  0  0  0
 20 24  1  0  0  0  0
 20 30  2  0  0  0  0
 21 25  1  0  0  0  0
 21 49  1  0  0  0  0
 21 50  1  0  0  0  0
 22 26  1  0  0  0  0
 22 51  1  0  0  0  0
 22 52  1  0  0  0  0
 23 24  1  0  0  0  0
 23 31  2  0  0  0  0
 24 32  2  0  0  0  0
 25 27  1  0  0  0  0
 25 33  2  0  0  0  0
 26 28  1  0  0  0  0
 26 34  2  0  0  0  0
 27 39  2  0  0  0  0
 28 40  2  0  0  0  0
 29 35  1  0  0  0  0
 29 53  1  0  0  0  0
 30 36  1  0  0  0  0
 30 54  1  0  0  0  0
 31 37  1  0  0  0  0
 32 38  1  0  0  0  0
 33 41  1  0  0  0  0
 34 42  1  0  0  0  0
 35 37  2  0  0  0  0
 36 38  2  0  0  0  0
 39 43  1  0  0  0  0
 39 57  1  0  0  0  0
 40 44  1  0  0  0  0
 40 58  1  0  0  0  0
 41 43  2  0  0  0  0
 41 59  1  0  0  0  0
 42 44  2  0  0  0  0
 42 60  1  0  0  0  0
M  END
> <PUBCHEM_COMPOUND_CID>
467317

> <PUBCHEM_COMPOUND_CANONICALIZED>
1

> <PUBCHEM_CACTVS_COMPLEXITY>
913

> <PUBCHEM_CACTVS_HBOND_ACCEPTOR>
14

> <PUBCHEM_CACTVS_HBOND_DONOR>
12

> <PUBCHEM_CACTVS_ROTATABLE_BOND>
3

> <PUBCHEM_CACTVS_SUBSKEYS>
AAADceB4PAAAAAAAAAAAAAAAAAAAAAAAAAA0aMGCAAAAAACRVAAAGgAACAAADBSgmAIwBoAABgCAAiBCAAACCAAgIAAAiAAGiIgNNyKGMRqCeCGlwBULuAfA4PwOoAABCAAYQABAAAIQADCAAAAAAAAAAA==

> <PUBCHEM_IUPAC_OPENEYE_NAME>
(2R,3R)-2-[3,4,5-trihydroxy-2-[2,3,4-trihydroxy-6-[(2R,3R)-3,5,7-trihydroxychroman-2-yl]phenyl]phenyl]chromane-3,5,7-triol

> <PUBCHEM_IUPAC_CAS_NAME>
(2R,3R)-2-[3,4,5-trihydroxy-2-[2,3,4-trihydroxy-6-[(2R,3R)-3,5,7-trihydroxy-3,4-dihydro-2H-1-benzopyran-2-yl]phenyl]phenyl]-3,4-dihydro-2H-1-benzopyran-3,5,7-triol

> <PUBCHEM_IUPAC_NAME_MARKUP>
(2<I>R</I>,3<I>R</I>)-2-[3,4,5-trihydroxy-2-[2,3,4-trihydroxy-6-[(2<I>R</I>,3<I>R</I>)-3,5,7-trihydroxy-3,4-dihydro-2<I>H</I>-chromen-2-yl]phenyl]phenyl]-3,4-dihydro-2<I>H</I>-chromene-3,5,7-triol

> <PUBCHEM_IUPAC_NAME>
(2R,3R)-2-[3,4,5-trihydroxy-2-[2,3,4-trihydroxy-6-[(2R,3R)-3,5,7-trihydroxy-3,4-dihydro-2H-chromen-2-yl]phenyl]phenyl]-3,4-dihydro-2H-chromene-3,5,7-triol

> <PUBCHEM_IUPAC_SYSTEMATIC_NAME>
(2R,3R)-2-[3,4,5-tris(oxidanyl)-2-[2,3,4-tris(oxidanyl)-6-[(2R,3R)-3,5,7-tris(oxidanyl)-3,4-dihydro-2H-chromen-2-yl]phenyl]phenyl]-3,4-dihydro-2H-chromene-3,5,7-triol

> <PUBCHEM_IUPAC_TRADITIONAL_NAME>
(2R,3R)-2-[3,4,5-trihydroxy-2-[2,3,4-trihydroxy-6-[(2R,3R)-3,5,7-trihydroxychroman-2-yl]phenyl]phenyl]chroman-3,5,7-triol

> <PUBCHEM_IUPAC_INCHI>
InChI=1S/C30H26O14/c31-9-1-15(33)11-5-19(37)29(43-21(11)3-9)13-7-17(35)25(39)27(41)23(13)24-14(8-18(36)26(40)28(24)42)30-20(38)6-12-16(34)2-10(32)4-22(12)44-30/h1-4,7-8,19-20,29-42H,5-6H2/t19-,20-,29-,30-/m1/s1

> <PUBCHEM_IUPAC_INCHIKEY>
JPBGHWKYWUEIOT-XYTTVBAYSA-N

> <PUBCHEM_XLOGP3_AA>
1.8

> <PUBCHEM_EXACT_MASS>
610.13225550

> <PUBCHEM_MOLECULAR_FORMULA>
C30H26O14

> <PUBCHEM_MOLECULAR_WEIGHT>
610.5

> <PUBCHEM_OPENEYE_CAN_SMILES>
C1C(C(OC2=CC(=CC(=C21)O)O)C3=CC(=C(C(=C3C4=C(C(=C(C=C4C5C(CC6=C(C=C(C=C6O5)O)O)O)O)O)O)O)O)O)O

> <PUBCHEM_OPENEYE_ISO_SMILES>
C1[C@H]([C@H](OC2=CC(=CC(=C21)O)O)C3=CC(=C(C(=C3C4=C(C(=C(C=C4[C@@H]5[C@@H](CC6=C(C=C(C=C6O5)O)O)O)O)O)O)O)O)O)O

> <PUBCHEM_CACTVS_TPSA>
261

> <PUBCHEM_MONOISOTOPIC_WEIGHT>
610.13225550

> <PUBCHEM_TOTAL_CHARGE>
0

> <PUBCHEM_HEAVY_ATOM_COUNT>
44

> <PUBCHEM_ATOM_DEF_STEREO_COUNT>
4

> <PUBCHEM_ATOM_UDEF_STEREO_COUNT>
0

> <PUBCHEM_BOND_DEF_STEREO_COUNT>
0

> <PUBCHEM_BOND_UDEF_STEREO_COUNT>
0

> <PUBCHEM_ISOTOPIC_ATOM_COUNT>
0

> <PUBCHEM_COMPONENT_COUNT>
1

> <PUBCHEM_CACTVS_TAUTO_COUNT>
-1

> <PUBCHEM_COORDINATE_TYPE>
1
5
255

> <PUBCHEM_BONDANNOTATIONS>
15  45  6
16  46  6
19  23  8
19  29  8
20  24  8
20  30  8
23  31  8
24  32  8
25  27  8
25  33  8
26  28  8
26  34  8
27  39  8
28  40  8
29  35  8
17  3  5
30  36  8
31  37  8
32  38  8
33  41  8
34  42  8
35  37  8
36  38  8
39  43  8
18  4  5
40  44  8
41  43  8
42  44  8

$$$$
