44257945
  -OEChem-02232223412D

 49 52  0     1  0  0  0  0  0999 V2000
    3.7320    0.5148    0.0000 O   0  0  0  0  0  0  0  0  0  0  0  0
    5.4641    2.5148    0.0000 O   0  0  0  0  0  0  0  0  0  0  0  0
    3.7320    3.5148    0.0000 O   0  0  0  0  0  0  0  0  0  0  0  0
    2.0000    2.5148    0.0000 O   0  0  0  0  0  0  0  0  0  0  0  0
    8.0901   -1.0199    0.0000 O   0  0  0  0  0  0  0  0  0  0  0  0
    6.3301    2.0148    0.0000 O   0  0  0  0  0  0  0  0  0  0  0  0
    4.5981   -0.9852    0.0000 O   0  0  0  0  0  0  0  0  0  0  0  0
    8.0785    2.0494    0.0000 O   0  0  0  0  0  0  0  0  0  0  0  0
   10.7166   -3.5127    0.0000 O   0  0  0  0  0  0  0  0  0  0  0  0
   12.4525   -2.5194    0.0000 O   0  0  0  0  0  0  0  0  0  0  0  0
    4.5981    1.0148    0.0000 C   0  0  1  0  0  0  0  0  0  0  0  0
    4.5981    2.0148    0.0000 C   0  0  3  0  0  0  0  0  0  0  0  0
    3.7320    2.5148    0.0000 C   0  0  2  0  0  0  0  0  0  0  0  0
    2.8660    1.0148    0.0000 C   0  0  3  0  0  0  0  0  0  0  0  0
    5.4641    0.5148    0.0000 C   0  0  0  0  0  0  0  0  0  0  0  0
    2.8660    2.0148    0.0000 C   0  0  0  0  0  0  0  0  0  0  0  0
    6.3301    1.0148    0.0000 C   0  0  0  0  0  0  0  0  0  0  0  0
    5.4641   -0.4852    0.0000 C   0  0  0  0  0  0  0  0  0  0  0  0
    2.0000    0.5148    0.0000 C   0  0  0  0  0  0  0  0  0  0  0  0
    7.1962    0.5148    0.0000 C   0  0  0  0  0  0  0  0  0  0  0  0
    7.1962   -0.4852    0.0000 C   0  0  0  0  0  0  0  0  0  0  0  0
    6.3301   -0.9852    0.0000 C   0  0  0  0  0  0  0  0  0  0  0  0
    8.0901    1.0494    0.0000 C   0  0  0  0  0  0  0  0  0  0  0  0
    8.9962   -0.5060    0.0000 C   0  0  0  0  0  0  0  0  0  0  0  0
    8.9962    0.5356    0.0000 C   0  0  0  0  0  0  0  0  0  0  0  0
    9.8602   -1.0094    0.0000 C   0  0  0  0  0  0  0  0  0  0  0  0
    9.8564   -2.0094    0.0000 C   0  0  0  0  0  0  0  0  0  0  0  0
   10.7282   -0.5127    0.0000 C   0  0  0  0  0  0  0  0  0  0  0  0
   10.7205   -2.5127    0.0000 C   0  0  0  0  0  0  0  0  0  0  0  0
   11.5923   -1.0161    0.0000 C   0  0  0  0  0  0  0  0  0  0  0  0
   11.5884   -2.0160    0.0000 C   0  0  0  0  0  0  0  0  0  0  0  0
    5.3342    1.4398    0.0000 H   0  0  0  0  0  0  0  0  0  0  0  0
    4.5981    2.6348    0.0000 H   0  0  0  0  0  0  0  0  0  0  0  0
    3.1951    2.8248    0.0000 H   0  0  0  0  0  0  0  0  0  0  0  0
    2.8660    0.3948    0.0000 H   0  0  0  0  0  0  0  0  0  0  0  0
    1.6900    1.0517    0.0000 H   0  0  0  0  0  0  0  0  0  0  0  0
    1.4631    0.2048    0.0000 H   0  0  0  0  0  0  0  0  0  0  0  0
    2.3100   -0.0222    0.0000 H   0  0  0  0  0  0  0  0  0  0  0  0
    5.4641    3.1348    0.0000 H   0  0  0  0  0  0  0  0  0  0  0  0
    6.3301   -1.6052    0.0000 H   0  0  0  0  0  0  0  0  0  0  0  0
    3.1951    3.8248    0.0000 H   0  0  0  0  0  0  0  0  0  0  0  0
    9.5319    0.8477    0.0000 H   0  0  0  0  0  0  0  0  0  0  0  0
    6.8671    2.3248    0.0000 H   0  0  0  0  0  0  0  0  0  0  0  0
    4.5981   -1.6052    0.0000 H   0  0  0  0  0  0  0  0  0  0  0  0
    9.3183   -2.3173    0.0000 H   0  0  0  0  0  0  0  0  0  0  0  0
   10.7306    0.1073    0.0000 H   0  0  0  0  0  0  0  0  0  0  0  0
   12.1304   -0.7081    0.0000 H   0  0  0  0  0  0  0  0  0  0  0  0
   11.2524   -3.8248    0.0000 H   0  0  0  0  0  0  0  0  0  0  0  0
   12.9907   -2.2115    0.0000 H   0  0  0  0  0  0  0  0  0  0  0  0
  1 11  1  0  0  0  0
  1 14  1  0  0  0  0
  2 12  1  0  0  0  0
  2 39  1  0  0  0  0
 13  3  1  6  0  0  0
  3 41  1  0  0  0  0
  4 16  2  0  0  0  0
  5 21  1  0  0  0  0
  5 24  1  0  0  0  0
  6 17  1  0  0  0  0
  6 43  1  0  0  0  0
  7 18  1  0  0  0  0
  7 44  1  0  0  0  0
  8 23  2  0  0  0  0
  9 29  1  0  0  0  0
  9 48  1  0  0  0  0
 10 31  1  0  0  0  0
 10 49  1  0  0  0  0
 11 12  1  0  0  0  0
 11 15  1  0  0  0  0
 11 32  1  6  0  0  0
 12 13  1  0  0  0  0
 12 33  1  0  0  0  0
 13 16  1  0  0  0  0
 13 34  1  0  0  0  0
 14 16  1  0  0  0  0
 14 19  1  0  0  0  0
 14 35  1  0  0  0  0
 15 17  2  0  0  0  0
 15 18  1  0  0  0  0
 17 20  1  0  0  0  0
 18 22  2  0  0  0  0
 19 36  1  0  0  0  0
 19 37  1  0  0  0  0
 19 38  1  0  0  0  0
 20 21  2  0  0  0  0
 20 23  1  0  0  0  0
 21 22  1  0  0  0  0
 22 40  1  0  0  0  0
 23 25  1  0  0  0  0
 24 25  2  0  0  0  0
 24 26  1  0  0  0  0
 25 42  1  0  0  0  0
 26 27  2  0  0  0  0
 26 28  1  0  0  0  0
 27 29  1  0  0  0  0
 27 45  1  0  0  0  0
 28 30  2  0  0  0  0
 28 46  1  0  0  0  0
 29 31  2  0  0  0  0
 30 31  1  0  0  0  0
 30 47  1  0  0  0  0
M  END
> <PUBCHEM_COMPOUND_CID>
44257945

> <PUBCHEM_COMPOUND_CANONICALIZED>
1

> <PUBCHEM_CACTVS_COMPLEXITY>
752

> <PUBCHEM_CACTVS_HBOND_ACCEPTOR>
10

> <PUBCHEM_CACTVS_HBOND_DONOR>
6

> <PUBCHEM_CACTVS_ROTATABLE_BOND>
2

> <PUBCHEM_CACTVS_SUBSKEYS>
AAADceB4PAAAAAAAAAAAAAAAAAAAAAAAAAA0YIEAAAAAAACBQAAAGgAACAAADBSgmAIyBoAABgCIAqBSAAICCAAkIAAIiAFGiMgNNzaGNR6CeWGl4BULuQfK7PzOIAADCAAIQABAAAYQABCAAAAAAAAAAA==

> <PUBCHEM_IUPAC_OPENEYE_NAME>
6-[(2R,4R)-3,4-dihydroxy-6-methyl-5-oxo-tetrahydropyran-2-yl]-2-(3,4-dihydroxyphenyl)-5,7-dihydroxy-chromen-4-one

> <PUBCHEM_IUPAC_CAS_NAME>
6-[(2R,4R)-3,4-dihydroxy-6-methyl-5-oxo-2-oxanyl]-2-(3,4-dihydroxyphenyl)-5,7-dihydroxy-1-benzopyran-4-one

> <PUBCHEM_IUPAC_NAME_MARKUP>
6-[(2<I>R</I>,4<I>R</I>)-3,4-dihydroxy-6-methyl-5-oxooxan-2-yl]-2-(3,4-dihydroxyphenyl)-5,7-dihydroxychromen-4-one

> <PUBCHEM_IUPAC_NAME>
6-[(2R,4R)-3,4-dihydroxy-6-methyl-5-oxooxan-2-yl]-2-(3,4-dihydroxyphenyl)-5,7-dihydroxychromen-4-one

> <PUBCHEM_IUPAC_SYSTEMATIC_NAME>
2-[3,4-bis(oxidanyl)phenyl]-6-[(2R,4R)-6-methyl-3,4-bis(oxidanyl)-5-oxidanylidene-oxan-2-yl]-5,7-bis(oxidanyl)chromen-4-one

> <PUBCHEM_IUPAC_TRADITIONAL_NAME>
6-[(2R,4R)-3,4-dihydroxy-5-keto-6-methyl-tetrahydropyran-2-yl]-2-(3,4-dihydroxyphenyl)-5,7-dihydroxy-chromone

> <PUBCHEM_IUPAC_INCHI>
InChI=1S/C21H18O10/c1-7-17(26)19(28)20(29)21(30-7)16-12(25)6-14-15(18(16)27)11(24)5-13(31-14)8-2-3-9(22)10(23)4-8/h2-7,19-23,25,27-29H,1H3/t7?,19-,20?,21+/m0/s1

> <PUBCHEM_IUPAC_INCHIKEY>
WDPQNSQNFBXQCI-KTMDGTSKSA-N

> <PUBCHEM_XLOGP3_AA>
0.8

> <PUBCHEM_EXACT_MASS>
430.08999677

> <PUBCHEM_MOLECULAR_FORMULA>
C21H18O10

> <PUBCHEM_MOLECULAR_WEIGHT>
430.4

> <PUBCHEM_OPENEYE_CAN_SMILES>
CC1C(=O)C(C(C(O1)C2=C(C3=C(C=C2O)OC(=CC3=O)C4=CC(=C(C=C4)O)O)O)O)O

> <PUBCHEM_OPENEYE_ISO_SMILES>
CC1C(=O)[C@@H](C([C@H](O1)C2=C(C3=C(C=C2O)OC(=CC3=O)C4=CC(=C(C=C4)O)O)O)O)O

> <PUBCHEM_CACTVS_TPSA>
174

> <PUBCHEM_MONOISOTOPIC_WEIGHT>
430.08999677

> <PUBCHEM_TOTAL_CHARGE>
0

> <PUBCHEM_HEAVY_ATOM_COUNT>
31

> <PUBCHEM_ATOM_DEF_STEREO_COUNT>
2

> <PUBCHEM_ATOM_UDEF_STEREO_COUNT>
2

> <PUBCHEM_BOND_DEF_STEREO_COUNT>
0

> <PUBCHEM_BOND_UDEF_STEREO_COUNT>
0

> <PUBCHEM_ISOTOPIC_ATOM_COUNT>
0

> <PUBCHEM_COMPONENT_COUNT>
1

> <PUBCHEM_CACTVS_TAUTO_COUNT>
-1

> <PUBCHEM_COORDINATE_TYPE>
1
5
255

> <PUBCHEM_BONDANNOTATIONS>
11  32  6
14  19  3
15  17  8
15  18  8
17  20  8
18  22  8
12  2  3
20  21  8
20  23  8
21  22  8
23  25  8
24  25  8
26  27  8
26  28  8
27  29  8
28  30  8
29  31  8
13  3  6
30  31  8
5  21  8
5  24  8

$$$$
