6737485
  -OEChem-02232223502D

 46 51  0     0  0  0  0  0  0999 V2000
    4.6660    0.4654    0.0000 O   0  0  0  0  0  0  0  0  0  0  0  0
    8.1744   -0.4654    0.0000 O   0  0  0  0  0  0  0  0  0  0  0  0
    4.6660   -3.5346    0.0000 O   0  0  0  0  0  0  0  0  0  0  0  0
    8.1744    3.5346    0.0000 O   0  0  0  0  0  0  0  0  0  0  0  0
    6.4260   -0.5000    0.0000 C   0  0  0  0  0  0  0  0  0  0  0  0
    6.4144    0.5000    0.0000 C   0  0  0  0  0  0  0  0  0  0  0  0
    5.5321   -1.0346    0.0000 C   0  0  0  0  0  0  0  0  0  0  0  0
    7.3084    1.0346    0.0000 C   0  0  0  0  0  0  0  0  0  0  0  0
    5.5321   -2.0346    0.0000 C   0  0  0  0  0  0  0  0  0  0  0  0
    7.3084    2.0346    0.0000 C   0  0  0  0  0  0  0  0  0  0  0  0
    4.6660   -0.5346    0.0000 C   0  0  0  0  0  0  0  0  0  0  0  0
    8.1744    0.5346    0.0000 C   0  0  0  0  0  0  0  0  0  0  0  0
    3.8000   -1.0346    0.0000 C   0  0  0  0  0  0  0  0  0  0  0  0
    9.0404    1.0346    0.0000 C   0  0  0  0  0  0  0  0  0  0  0  0
    3.8000   -2.0346    0.0000 C   0  0  0  0  0  0  0  0  0  0  0  0
    9.0404    2.0346    0.0000 C   0  0  0  0  0  0  0  0  0  0  0  0
    7.3321   -1.0138    0.0000 C   0  0  0  0  0  0  0  0  0  0  0  0
    5.5084    1.0138    0.0000 C   0  0  0  0  0  0  0  0  0  0  0  0
    4.6660   -2.5346    0.0000 C   0  0  0  0  0  0  0  0  0  0  0  0
    8.1744    2.5346    0.0000 C   0  0  0  0  0  0  0  0  0  0  0  0
    6.4260   -2.5693    0.0000 C   0  0  0  0  0  0  0  0  0  0  0  0
    6.4144    2.5693    0.0000 C   0  0  0  0  0  0  0  0  0  0  0  0
    7.3321   -2.0554    0.0000 C   0  0  0  0  0  0  0  0  0  0  0  0
    5.5084    2.0554    0.0000 C   0  0  0  0  0  0  0  0  0  0  0  0
    2.9061   -0.5000    0.0000 C   0  0  0  0  0  0  0  0  0  0  0  0
    9.9344    0.5000    0.0000 C   0  0  0  0  0  0  0  0  0  0  0  0
    2.9061   -2.5693    0.0000 C   0  0  0  0  0  0  0  0  0  0  0  0
    9.9344    2.5693    0.0000 C   0  0  0  0  0  0  0  0  0  0  0  0
    2.0000   -1.0138    0.0000 C   0  0  0  0  0  0  0  0  0  0  0  0
   10.8404    1.0138    0.0000 C   0  0  0  0  0  0  0  0  0  0  0  0
    2.0000   -2.0554    0.0000 C   0  0  0  0  0  0  0  0  0  0  0  0
   10.8404    2.0554    0.0000 C   0  0  0  0  0  0  0  0  0  0  0  0
    7.8678   -0.7017    0.0000 H   0  0  0  0  0  0  0  0  0  0  0  0
    4.9726    0.7017    0.0000 H   0  0  0  0  0  0  0  0  0  0  0  0
    6.4188   -3.1892    0.0000 H   0  0  0  0  0  0  0  0  0  0  0  0
    6.4216    3.1892    0.0000 H   0  0  0  0  0  0  0  0  0  0  0  0
    7.8678   -2.3675    0.0000 H   0  0  0  0  0  0  0  0  0  0  0  0
    4.9726    2.3675    0.0000 H   0  0  0  0  0  0  0  0  0  0  0  0
    2.9132    0.1200    0.0000 H   0  0  0  0  0  0  0  0  0  0  0  0
    9.9272   -0.1200    0.0000 H   0  0  0  0  0  0  0  0  0  0  0  0
    2.9132   -3.1892    0.0000 H   0  0  0  0  0  0  0  0  0  0  0  0
    9.9272    3.1892    0.0000 H   0  0  0  0  0  0  0  0  0  0  0  0
    1.4643   -0.7017    0.0000 H   0  0  0  0  0  0  0  0  0  0  0  0
   11.3762    0.7017    0.0000 H   0  0  0  0  0  0  0  0  0  0  0  0
    1.4643   -2.3675    0.0000 H   0  0  0  0  0  0  0  0  0  0  0  0
   11.3762    2.3675    0.0000 H   0  0  0  0  0  0  0  0  0  0  0  0
  1 11  2  0  0  0  0
  2 12  2  0  0  0  0
  3 19  2  0  0  0  0
  4 20  2  0  0  0  0
  5  6  1  0  0  0  0
  5  7  2  0  0  0  0
  5 17  1  0  0  0  0
  6  8  2  0  0  0  0
  6 18  1  0  0  0  0
  7  9  1  0  0  0  0
  7 11  1  0  0  0  0
  8 10  1  0  0  0  0
  8 12  1  0  0  0  0
  9 19  1  0  0  0  0
  9 21  2  0  0  0  0
 10 20  1  0  0  0  0
 10 22  2  0  0  0  0
 11 13  1  0  0  0  0
 12 14  1  0  0  0  0
 13 15  1  0  0  0  0
 13 25  2  0  0  0  0
 14 16  1  0  0  0  0
 14 26  2  0  0  0  0
 15 19  1  0  0  0  0
 15 27  2  0  0  0  0
 16 20  1  0  0  0  0
 16 28  2  0  0  0  0
 17 23  2  0  0  0  0
 17 33  1  0  0  0  0
 18 24  2  0  0  0  0
 18 34  1  0  0  0  0
 21 23  1  0  0  0  0
 21 35  1  0  0  0  0
 22 24  1  0  0  0  0
 22 36  1  0  0  0  0
 23 37  1  0  0  0  0
 24 38  1  0  0  0  0
 25 29  1  0  0  0  0
 25 39  1  0  0  0  0
 26 30  1  0  0  0  0
 26 40  1  0  0  0  0
 27 31  1  0  0  0  0
 27 41  1  0  0  0  0
 28 32  1  0  0  0  0
 28 42  1  0  0  0  0
 29 31  2  0  0  0  0
 29 43  1  0  0  0  0
 30 32  2  0  0  0  0
 30 44  1  0  0  0  0
 31 45  1  0  0  0  0
 32 46  1  0  0  0  0
M  END
> <PUBCHEM_COMPOUND_CID>
6737485

> <PUBCHEM_COMPOUND_CANONICALIZED>
1

> <PUBCHEM_CACTVS_COMPLEXITY>
761

> <PUBCHEM_CACTVS_HBOND_ACCEPTOR>
4

> <PUBCHEM_CACTVS_HBOND_DONOR>
0

> <PUBCHEM_CACTVS_ROTATABLE_BOND>
1

> <PUBCHEM_CACTVS_SUBSKEYS>
AAADccB4OAAAAAAAAAAAAAAAAAAAAAAAAAAwYMGDAAAAAADBVAAAGgAAAAAADASAmAAwAIAAAACIAqBSAAACAAAkAAAIiAEAAMgIIDKAFRCAIQAggAAIiYcJiMCOgAACAAAQAACAAAQAACAAAAAAAAAAAA==

> <PUBCHEM_IUPAC_OPENEYE_NAME>
1-(9,10-dioxo-1-anthryl)anthracene-9,10-dione

> <PUBCHEM_IUPAC_CAS_NAME>
1-(9,10-dioxo-1-anthracenyl)anthracene-9,10-dione

> <PUBCHEM_IUPAC_NAME_MARKUP>
1-(9,10-dioxoanthracen-1-yl)anthracene-9,10-dione

> <PUBCHEM_IUPAC_NAME>
1-(9,10-dioxoanthracen-1-yl)anthracene-9,10-dione

> <PUBCHEM_IUPAC_SYSTEMATIC_NAME>
1-[9,10-bis(oxidanylidene)anthracen-1-yl]anthracene-9,10-dione

> <PUBCHEM_IUPAC_TRADITIONAL_NAME>
1-(9,10-diketo-1-anthryl)-9,10-anthraquinone

> <PUBCHEM_IUPAC_INCHI>
InChI=1S/C28H14O4/c29-25-17-7-1-3-9-19(17)27(31)23-15(11-5-13-21(23)25)16-12-6-14-22-24(16)28(32)20-10-4-2-8-18(20)26(22)30/h1-14H

> <PUBCHEM_IUPAC_INCHIKEY>
SZKSKYDUWNZBPR-UHFFFAOYSA-N

> <PUBCHEM_XLOGP3_AA>
5.4

> <PUBCHEM_EXACT_MASS>
414.08920892

> <PUBCHEM_MOLECULAR_FORMULA>
C28H14O4

> <PUBCHEM_MOLECULAR_WEIGHT>
414.4

> <PUBCHEM_OPENEYE_CAN_SMILES>
C1=CC=C2C(=C1)C(=O)C3=CC=CC(=C3C2=O)C4=C5C(=CC=C4)C(=O)C6=CC=CC=C6C5=O

> <PUBCHEM_OPENEYE_ISO_SMILES>
C1=CC=C2C(=C1)C(=O)C3=CC=CC(=C3C2=O)C4=C5C(=CC=C4)C(=O)C6=CC=CC=C6C5=O

> <PUBCHEM_CACTVS_TPSA>
68.3

> <PUBCHEM_MONOISOTOPIC_WEIGHT>
414.08920892

> <PUBCHEM_TOTAL_CHARGE>
0

> <PUBCHEM_HEAVY_ATOM_COUNT>
32

> <PUBCHEM_ATOM_DEF_STEREO_COUNT>
0

> <PUBCHEM_ATOM_UDEF_STEREO_COUNT>
0

> <PUBCHEM_BOND_DEF_STEREO_COUNT>
0

> <PUBCHEM_BOND_UDEF_STEREO_COUNT>
0

> <PUBCHEM_ISOTOPIC_ATOM_COUNT>
0

> <PUBCHEM_COMPONENT_COUNT>
1

> <PUBCHEM_CACTVS_TAUTO_COUNT>
-1

> <PUBCHEM_COORDINATE_TYPE>
1
5
255

> <PUBCHEM_BONDANNOTATIONS>
10  22  8
13  15  8
13  25  8
14  16  8
14  26  8
15  27  8
16  28  8
17  23  8
18  24  8
21  23  8
22  24  8
25  29  8
26  30  8
27  31  8
28  32  8
29  31  8
30  32  8
5  17  8
5  7  8
6  18  8
6  8  8
7  9  8
8  10  8
9  21  8

$$$$
