101731086
  -OEChem-02232223542D

156164  0     1  0  0  0  0  0999 V2000
   12.9292    0.5900    0.0000 O   0  0  0  0  0  0  0  0  0  0  0  0
   21.8424    3.7109    0.0000 O   0  0  0  0  0  0  0  0  0  0  0  0
   20.9937    2.2010    0.0000 O   0  0  0  0  0  0  0  0  0  0  0  0
   12.0632    2.0900    0.0000 O   0  0  0  0  0  0  0  0  0  0  0  0
   11.1972   -0.4100    0.0000 O   0  0  0  0  0  0  0  0  0  0  0  0
    9.4651    0.5900    0.0000 O   0  0  0  0  0  0  0  0  0  0  0  0
    9.4651    2.5900    0.0000 O   0  0  0  0  0  0  0  0  0  0  0  0
    9.4651   -0.4100    0.0000 O   0  0  0  0  0  0  0  0  0  0  0  0
   11.1972   -2.4100    0.0000 O   0  0  0  0  0  0  0  0  0  0  0  0
    9.4651   -3.4100    0.0000 O   0  0  0  0  0  0  0  0  0  0  0  0
    7.7331   -2.4100    0.0000 O   0  0  0  0  0  0  0  0  0  0  0  0
    7.7331   -3.4100    0.0000 O   0  0  0  0  0  0  0  0  0  0  0  0
    9.4651   -5.4100    0.0000 O   0  0  0  0  0  0  0  0  0  0  0  0
    7.7331   -6.4100    0.0000 O   0  0  0  0  0  0  0  0  0  0  0  0
    6.0010   -5.4100    0.0000 O   0  0  0  0  0  0  0  0  0  0  0  0
    5.1350   -3.9100    0.0000 O   0  0  0  0  0  0  0  0  0  0  0  0
    4.2690   -6.4100    0.0000 O   0  0  0  0  0  0  0  0  0  0  0  0
    2.5369   -5.4100    0.0000 O   0  0  0  0  0  0  0  0  0  0  0  0
    2.5369   -3.4100    0.0000 O   0  0  0  0  0  0  0  0  0  0  0  0
    3.4030   -1.9100    0.0000 O   0  0  0  0  0  0  0  0  0  0  0  0
   17.4503    2.1598    0.0000 C   0  0  2  0  0  0  0  0  0  0  0  0
   16.5823    2.6565    0.0000 C   0  0  1  0  0  0  0  0  0  0  0  0
   15.6743    2.1461    0.0000 C   0  0  2  0  0  0  0  0  0  0  0  0
   18.3144    2.6631    0.0000 C   0  0  1  0  0  0  0  0  0  0  0  0
   15.6703    1.1045    0.0000 C   0  0  2  0  0  0  0  0  0  0  0  0
   17.4704    1.1184    0.0000 C   0  0  0  0  0  0  0  0  0  0  0  0
   14.7370    0.5512    0.0000 C   0  0  0  0  0  0  0  0  0  0  0  0
   16.5744    0.5872    0.0000 C   0  0  0  0  0  0  0  0  0  0  0  0
   18.3105    3.6631    0.0000 C   0  0  0  0  0  0  0  0  0  0  0  0
   16.5785    3.6564    0.0000 C   0  0  0  0  0  0  0  0  0  0  0  0
   14.7453    2.7066    0.0000 C   0  0  0  0  0  0  0  0  0  0  0  0
   19.2024    4.2012    0.0000 C   0  0  1  0  0  0  0  0  0  0  0  0
   19.2104    2.1319    0.0000 C   0  0  0  0  0  0  0  0  0  0  0  0
   20.1104    3.6909    0.0000 C   0  0  1  0  0  0  0  0  0  0  0  0
   18.0960    1.3962    0.0000 C   0  0  0  0  0  0  0  0  0  0  0  0
   13.7953    1.0900    0.0000 C   0  0  2  0  0  0  0  0  0  0  0  0
   20.1145    2.6493    0.0000 C   0  0  0  0  0  0  0  0  0  0  0  0
   15.6782    3.1461    0.0000 C   0  0  0  0  0  0  0  0  0  0  0  0
   13.7994    2.1750    0.0000 C   0  0  0  0  0  0  0  0  0  0  0  0
   17.4426    4.1598    0.0000 C   0  0  0  0  0  0  0  0  0  0  0  0
   18.6600    1.7248    0.0000 C   0  0  0  0  0  0  0  0  0  0  0  0
   19.1731    5.2858    0.0000 C   0  0  0  0  0  0  0  0  0  0  0  0
   21.0522    4.2298    0.0000 C   0  0  0  0  0  0  0  0  0  0  0  0
   20.1021    5.8463    0.0000 C   0  0  0  0  0  0  0  0  0  0  0  0
   15.2436   -0.3110    0.0000 C   0  0  0  0  0  0  0  0  0  0  0  0
   14.2437   -0.3187    0.0000 C   0  0  0  0  0  0  0  0  0  0  0  0
   21.0480    5.3147    0.0000 C   0  0  0  0  0  0  0  0  0  0  0  0
   20.9822    3.2009    0.0000 C   0  0  0  0  0  0  0  0  0  0  0  0
   20.5887    6.7200    0.0000 C   0  0  0  0  0  0  0  0  0  0  0  0
   19.5888    6.7046    0.0000 C   0  0  0  0  0  0  0  0  0  0  0  0
   12.0632    1.0900    0.0000 C   0  0  2  0  0  0  0  0  0  0  0  0
   11.1972    0.5900    0.0000 C   0  0  2  0  0  0  0  0  0  0  0  0
   10.3312    1.0900    0.0000 C   0  0  1  0  0  0  0  0  0  0  0  0
   11.1972    2.5900    0.0000 C   0  0  0  0  0  0  0  0  0  0  0  0
   10.3312    2.0900    0.0000 C   0  0  1  0  0  0  0  0  0  0  0  0
   10.3312   -0.9100    0.0000 C   0  0  2  0  0  0  0  0  0  0  0  0
   10.3312   -1.9100    0.0000 C   0  0  1  0  0  0  0  0  0  0  0  0
    9.4651   -2.4100    0.0000 C   0  0  1  0  0  0  0  0  0  0  0  0
    8.5991   -0.9100    0.0000 C   0  0  2  0  0  0  0  0  0  0  0  0
    8.5991   -1.9100    0.0000 C   0  0  2  0  0  0  0  0  0  0  0  0
    7.7331   -0.4100    0.0000 C   0  0  0  0  0  0  0  0  0  0  0  0
    8.5991   -3.9100    0.0000 C   0  0  2  0  0  0  0  0  0  0  0  0
    8.5991   -4.9100    0.0000 C   0  0  1  0  0  0  0  0  0  0  0  0
    7.7331   -5.4100    0.0000 C   0  0  2  0  0  0  0  0  0  0  0  0
    6.8671   -4.9100    0.0000 C   0  0  1  0  0  0  0  0  0  0  0  0
    6.8671   -3.9100    0.0000 C   0  0  0  0  0  0  0  0  0  0  0  0
    5.1350   -4.9100    0.0000 C   0  0  2  0  0  0  0  0  0  0  0  0
    4.2690   -5.4100    0.0000 C   0  0  1  0  0  0  0  0  0  0  0  0
    3.4030   -4.9100    0.0000 C   0  0  2  0  0  0  0  0  0  0  0  0
    4.2690   -3.4100    0.0000 C   0  0  1  0  0  0  0  0  0  0  0  0
    3.4030   -3.9100    0.0000 C   0  0  1  0  0  0  0  0  0  0  0  0
    4.2690   -2.4100    0.0000 C   0  0  0  0  0  0  0  0  0  0  0  0
   17.3168    3.0843    0.0000 H   0  0  0  0  0  0  0  0  0  0  0  0
   15.6768    0.2545    0.0000 H   0  0  0  0  0  0  0  0  0  0  0  0
   17.6906    0.5388    0.0000 H   0  0  0  0  0  0  0  0  0  0  0  0
   18.0791    1.2362    0.0000 H   0  0  0  0  0  0  0  0  0  0  0  0
   16.1789    0.1097    0.0000 H   0  0  0  0  0  0  0  0  0  0  0  0
   16.9771    0.1158    0.0000 H   0  0  0  0  0  0  0  0  0  0  0  0
   16.3642    4.2382    0.0000 H   0  0  0  0  0  0  0  0  0  0  0  0
   15.9683    3.5464    0.0000 H   0  0  0  0  0  0  0  0  0  0  0  0
   15.1517    3.1748    0.0000 H   0  0  0  0  0  0  0  0  0  0  0  0
   14.3535    3.1872    0.0000 H   0  0  0  0  0  0  0  0  0  0  0  0
   19.9302    4.6403    0.0000 H   0  0  0  0  0  0  0  0  0  0  0  0
   18.8076    1.6606    0.0000 H   0  0  0  0  0  0  0  0  0  0  0  0
   19.6058    1.6544    0.0000 H   0  0  0  0  0  0  0  0  0  0  0  0
   17.6226    0.9959    0.0000 H   0  0  0  0  0  0  0  0  0  0  0  0
   18.4964    0.9228    0.0000 H   0  0  0  0  0  0  0  0  0  0  0  0
   18.5694    1.7966    0.0000 H   0  0  0  0  0  0  0  0  0  0  0  0
   13.7965    0.4700    0.0000 H   0  0  0  0  0  0  0  0  0  0  0  0
   20.3258    2.0664    0.0000 H   0  0  0  0  0  0  0  0  0  0  0  0
   20.7249    2.7577    0.0000 H   0  0  0  0  0  0  0  0  0  0  0  0
   16.2981    3.1437    0.0000 H   0  0  0  0  0  0  0  0  0  0  0  0
   15.6805    3.7661    0.0000 H   0  0  0  0  0  0  0  0  0  0  0  0
   15.0582    3.1485    0.0000 H   0  0  0  0  0  0  0  0  0  0  0  0
   13.5926    2.7595    0.0000 H   0  0  0  0  0  0  0  0  0  0  0  0
   13.1882    2.0713    0.0000 H   0  0  0  0  0  0  0  0  0  0  0  0
   17.4402    4.7798    0.0000 H   0  0  0  0  0  0  0  0  0  0  0  0
   18.0782    1.5105    0.0000 H   0  0  0  0  0  0  0  0  0  0  0  0
   18.8743    1.1430    0.0000 H   0  0  0  0  0  0  0  0  0  0  0  0
   19.2418    1.9391    0.0000 H   0  0  0  0  0  0  0  0  0  0  0  0
   18.9484    5.8637    0.0000 H   0  0  0  0  0  0  0  0  0  0  0  0
   18.5654    5.1633    0.0000 H   0  0  0  0  0  0  0  0  0  0  0  0
   21.2635    3.6469    0.0000 H   0  0  0  0  0  0  0  0  0  0  0  0
   21.6626    4.3382    0.0000 H   0  0  0  0  0  0  0  0  0  0  0  0
   14.7091   -0.6251    0.0000 H   0  0  0  0  0  0  0  0  0  0  0  0
   15.5578   -0.8455    0.0000 H   0  0  0  0  0  0  0  0  0  0  0  0
   15.7782    0.0031    0.0000 H   0  0  0  0  0  0  0  0  0  0  0  0
   13.7044   -0.0128    0.0000 H   0  0  0  0  0  0  0  0  0  0  0  0
   13.9378   -0.8580    0.0000 H   0  0  0  0  0  0  0  0  0  0  0  0
   14.7830   -0.6245    0.0000 H   0  0  0  0  0  0  0  0  0  0  0  0
   21.6592    5.2110    0.0000 H   0  0  0  0  0  0  0  0  0  0  0  0
   21.2548    5.8992    0.0000 H   0  0  0  0  0  0  0  0  0  0  0  0
   21.1304    6.4183    0.0000 H   0  0  0  0  0  0  0  0  0  0  0  0
   20.8904    7.2616    0.0000 H   0  0  0  0  0  0  0  0  0  0  0  0
   20.0471    7.0216    0.0000 H   0  0  0  0  0  0  0  0  0  0  0  0
   20.1209    7.0228    0.0000 H   0  0  0  0  0  0  0  0  0  0  0  0
   19.2706    7.2366    0.0000 H   0  0  0  0  0  0  0  0  0  0  0  0
   19.0567    6.3863    0.0000 H   0  0  0  0  0  0  0  0  0  0  0  0
   12.0632    0.4700    0.0000 H   0  0  0  0  0  0  0  0  0  0  0  0
   22.3829    3.4071    0.0000 H   0  0  0  0  0  0  0  0  0  0  0  0
   10.6603    0.2800    0.0000 H   0  0  0  0  0  0  0  0  0  0  0  0
    9.7942    1.4000    0.0000 H   0  0  0  0  0  0  0  0  0  0  0  0
   11.5957    3.0650    0.0000 H   0  0  0  0  0  0  0  0  0  0  0  0
   10.7987    3.0650    0.0000 H   0  0  0  0  0  0  0  0  0  0  0  0
   10.3312    2.7100    0.0000 H   0  0  0  0  0  0  0  0  0  0  0  0
   10.3312   -0.2900    0.0000 H   0  0  0  0  0  0  0  0  0  0  0  0
    8.9282    0.9000    0.0000 H   0  0  0  0  0  0  0  0  0  0  0  0
    9.4651    3.2100    0.0000 H   0  0  0  0  0  0  0  0  0  0  0  0
   10.3312   -2.5300    0.0000 H   0  0  0  0  0  0  0  0  0  0  0  0
    8.9282   -2.7200    0.0000 H   0  0  0  0  0  0  0  0  0  0  0  0
    8.5991   -0.2900    0.0000 H   0  0  0  0  0  0  0  0  0  0  0  0
    8.5991   -2.5300    0.0000 H   0  0  0  0  0  0  0  0  0  0  0  0
   11.7341   -2.1000    0.0000 H   0  0  0  0  0  0  0  0  0  0  0  0
    8.0431    0.1270    0.0000 H   0  0  0  0  0  0  0  0  0  0  0  0
    7.1962   -0.1000    0.0000 H   0  0  0  0  0  0  0  0  0  0  0  0
    7.4231   -0.9469    0.0000 H   0  0  0  0  0  0  0  0  0  0  0  0
    7.1962   -2.1000    0.0000 H   0  0  0  0  0  0  0  0  0  0  0  0
    8.5991   -3.2900    0.0000 H   0  0  0  0  0  0  0  0  0  0  0  0
    8.5991   -5.5300    0.0000 H   0  0  0  0  0  0  0  0  0  0  0  0
    7.1962   -5.7200    0.0000 H   0  0  0  0  0  0  0  0  0  0  0  0
    6.3301   -4.6000    0.0000 H   0  0  0  0  0  0  0  0  0  0  0  0
    6.6550   -3.3274    0.0000 H   0  0  0  0  0  0  0  0  0  0  0  0
    6.2565   -4.0176    0.0000 H   0  0  0  0  0  0  0  0  0  0  0  0
    9.4651   -6.0300    0.0000 H   0  0  0  0  0  0  0  0  0  0  0  0
    7.1962   -6.7200    0.0000 H   0  0  0  0  0  0  0  0  0  0  0  0
    5.1350   -5.5300    0.0000 H   0  0  0  0  0  0  0  0  0  0  0  0
    3.7320   -5.7200    0.0000 H   0  0  0  0  0  0  0  0  0  0  0  0
    2.8660   -4.6000    0.0000 H   0  0  0  0  0  0  0  0  0  0  0  0
    4.8059   -3.1000    0.0000 H   0  0  0  0  0  0  0  0  0  0  0  0
    3.4030   -3.2900    0.0000 H   0  0  0  0  0  0  0  0  0  0  0  0
    4.8796   -2.5176    0.0000 H   0  0  0  0  0  0  0  0  0  0  0  0
    4.4810   -1.8274    0.0000 H   0  0  0  0  0  0  0  0  0  0  0  0
    3.7320   -6.7200    0.0000 H   0  0  0  0  0  0  0  0  0  0  0  0
    2.0000   -5.1000    0.0000 H   0  0  0  0  0  0  0  0  0  0  0  0
    2.0000   -3.7200    0.0000 H   0  0  0  0  0  0  0  0  0  0  0  0
    3.4030   -1.2900    0.0000 H   0  0  0  0  0  0  0  0  0  0  0  0
 36  1  1  1  0  0  0
 51  1  1  1  0  0  0
  2 48  1  0  0  0  0
  2120  1  0  0  0  0
  3 48  2  0  0  0  0
  4 51  1  0  0  0  0
  4 54  1  0  0  0  0
 52  5  1  1  0  0  0
 56  5  1  1  0  0  0
 53  6  1  6  0  0  0
  6127  1  0  0  0  0
 55  7  1  6  0  0  0
  7128  1  0  0  0  0
  8 56  1  0  0  0  0
  8 59  1  0  0  0  0
 57  9  1  6  0  0  0
  9133  1  0  0  0  0
 58 10  1  6  0  0  0
 62 10  1  1  0  0  0
 60 11  1  1  0  0  0
 11137  1  0  0  0  0
 12 62  1  0  0  0  0
 12 66  1  0  0  0  0
 63 13  1  6  0  0  0
 13144  1  0  0  0  0
 64 14  1  1  0  0  0
 14145  1  0  0  0  0
 65 15  1  6  0  0  0
 67 15  1  1  0  0  0
 16 67  1  0  0  0  0
 16 70  1  0  0  0  0
 68 17  1  6  0  0  0
 17153  1  0  0  0  0
 69 18  1  1  0  0  0
 18154  1  0  0  0  0
 71 19  1  6  0  0  0
 19155  1  0  0  0  0
 20 72  1  0  0  0  0
 20156  1  0  0  0  0
 21 22  1  0  0  0  0
 21 24  1  0  0  0  0
 21 26  1  0  0  0  0
 21 35  1  1  0  0  0
 22 23  1  0  0  0  0
 22 30  1  0  0  0  0
 22 73  1  6  0  0  0
 23 25  1  0  0  0  0
 23 31  1  0  0  0  0
 23 38  1  1  0  0  0
 24 29  1  0  0  0  0
 24 33  1  0  0  0  0
 24 41  1  6  0  0  0
 25 27  1  0  0  0  0
 25 28  1  0  0  0  0
 25 74  1  6  0  0  0
 26 28  1  0  0  0  0
 26 75  1  0  0  0  0
 26 76  1  0  0  0  0
 27 36  1  0  0  0  0
 27 45  1  0  0  0  0
 27 46  1  0  0  0  0
 28 77  1  0  0  0  0
 28 78  1  0  0  0  0
 29 32  1  0  0  0  0
 29 40  2  0  0  0  0
 30 40  1  0  0  0  0
 30 79  1  0  0  0  0
 30 80  1  0  0  0  0
 31 39  1  0  0  0  0
 31 81  1  0  0  0  0
 31 82  1  0  0  0  0
 32 34  1  0  0  0  0
 32 42  1  0  0  0  0
 32 83  1  1  0  0  0
 33 37  1  0  0  0  0
 33 84  1  0  0  0  0
 33 85  1  0  0  0  0
 34 37  1  0  0  0  0
 34 43  1  0  0  0  0
 34 48  1  1  0  0  0
 35 86  1  0  0  0  0
 35 87  1  0  0  0  0
 35 88  1  0  0  0  0
 36 39  1  0  0  0  0
 36 89  1  0  0  0  0
 37 90  1  0  0  0  0
 37 91  1  0  0  0  0
 38 92  1  0  0  0  0
 38 93  1  0  0  0  0
 38 94  1  0  0  0  0
 39 95  1  0  0  0  0
 39 96  1  0  0  0  0
 40 97  1  0  0  0  0
 41 98  1  0  0  0  0
 41 99  1  0  0  0  0
 41100  1  0  0  0  0
 42 44  1  0  0  0  0
 42101  1  0  0  0  0
 42102  1  0  0  0  0
 43 47  1  0  0  0  0
 43103  1  0  0  0  0
 43104  1  0  0  0  0
 44 47  1  0  0  0  0
 44 49  1  0  0  0  0
 44 50  1  0  0  0  0
 45105  1  0  0  0  0
 45106  1  0  0  0  0
 45107  1  0  0  0  0
 46108  1  0  0  0  0
 46109  1  0  0  0  0
 46110  1  0  0  0  0
 47111  1  0  0  0  0
 47112  1  0  0  0  0
 49113  1  0  0  0  0
 49114  1  0  0  0  0
 49115  1  0  0  0  0
 50116  1  0  0  0  0
 50117  1  0  0  0  0
 50118  1  0  0  0  0
 51 52  1  0  0  0  0
 51119  1  0  0  0  0
 52 53  1  0  0  0  0
 52121  1  0  0  0  0
 53 55  1  0  0  0  0
 53122  1  0  0  0  0
 54 55  1  0  0  0  0
 54123  1  0  0  0  0
 54124  1  0  0  0  0
 55125  1  0  0  0  0
 56 57  1  0  0  0  0
 56126  1  0  0  0  0
 57 58  1  0  0  0  0
 57129  1  0  0  0  0
 58 60  1  0  0  0  0
 58130  1  0  0  0  0
 59 60  1  0  0  0  0
 59 61  1  6  0  0  0
 59131  1  0  0  0  0
 60132  1  0  0  0  0
 61134  1  0  0  0  0
 61135  1  0  0  0  0
 61136  1  0  0  0  0
 62 63  1  0  0  0  0
 62138  1  0  0  0  0
 63 64  1  0  0  0  0
 63139  1  0  0  0  0
 64 65  1  0  0  0  0
 64140  1  0  0  0  0
 65 66  1  0  0  0  0
 65141  1  0  0  0  0
 66142  1  0  0  0  0
 66143  1  0  0  0  0
 67 68  1  0  0  0  0
 67146  1  0  0  0  0
 68 69  1  0  0  0  0
 68147  1  0  0  0  0
 69 71  1  0  0  0  0
 69148  1  0  0  0  0
 70 71  1  0  0  0  0
 70 72  1  1  0  0  0
 70149  1  0  0  0  0
 71150  1  0  0  0  0
 72151  1  0  0  0  0
 72152  1  0  0  0  0
M  END
> <PUBCHEM_COMPOUND_CID>
101731086

> <PUBCHEM_COMPOUND_CANONICALIZED>
1

> <PUBCHEM_CACTVS_COMPLEXITY>
1990

> <PUBCHEM_CACTVS_HBOND_ACCEPTOR>
20

> <PUBCHEM_CACTVS_HBOND_DONOR>
11

> <PUBCHEM_CACTVS_ROTATABLE_BOND>
10

> <PUBCHEM_CACTVS_SUBSKEYS>
AAADcfB8PgAAAAAAAAAAAAAAAAAAAAAAAAA0aNGiAAAAAADAAAAAGgAACAAADxSwgAMCCAAABgCIAiDSCAAAAAAgAAAACAEAAAgREBIAAQAiQAAFgAAPAAPI6PyPgAAAAAAAAADAAAYAADAAAAAAAAAAAA==

> <PUBCHEM_IUPAC_OPENEYE_NAME>
(4aS,6aR,6aS,6bR,8aR,10S,12aR,14bS)-10-[(2S,3S,4R,5R)-3-[(2S,3R,4R,5S,6S)-4-[(2S,3R,4R,5R)-3,4-dihydroxy-5-[(2S,3R,4S,5S,6R)-3,4,5-trihydroxy-6-(hydroxymethyl)tetrahydropyran-2-yl]oxy-tetrahydropyran-2-yl]oxy-3,5-dihydroxy-6-methyl-tetrahydropyran-2-yl]oxy-4,5-dihydroxy-tetrahydropyran-2-yl]oxy-2,2,6a,6b,9,9,12a-heptamethyl-1,3,4,5,6,6a,7,8,8a,10,11,12,13,14b-tetradecahydropicene-4a-carboxylic acid

> <PUBCHEM_IUPAC_CAS_NAME>
(4aS,6aR,6aS,6bR,8aR,10S,12aR,14bS)-10-[[(2S,3S,4R,5R)-3-[[(2S,3R,4R,5S,6S)-4-[[(2S,3R,4R,5R)-3,4-dihydroxy-5-[[(2S,3R,4S,5S,6R)-3,4,5-trihydroxy-6-(hydroxymethyl)-2-oxanyl]oxy]-2-oxanyl]oxy]-3,5-dihydroxy-6-methyl-2-oxanyl]oxy]-4,5-dihydroxy-2-oxanyl]oxy]-2,2,6a,6b,9,9,12a-heptamethyl-1,3,4,5,6,6a,7,8,8a,10,11,12,13,14b-tetradecahydropicene-4a-carboxylic acid

> <PUBCHEM_IUPAC_NAME_MARKUP>
(4<I>a</I><I>S</I>,6<I>a</I><I>R</I>,6<I>a</I><I>S</I>,6<I>b</I><I>R</I>,8<I>a</I><I>R</I>,10<I>S</I>,12<I>a</I><I>R</I>,14<I>b</I><I>S</I>)-10-[(2<I>S</I>,3<I>S</I>,4<I>R</I>,5<I>R</I>)-3-[(2<I>S</I>,3<I>R</I>,4<I>R</I>,5<I>S</I>,6<I>S</I>)-4-[(2<I>S</I>,3<I>R</I>,4<I>R</I>,5<I>R</I>)-3,4-dihydroxy-5-[(2<I>S</I>,3<I>R</I>,4<I>S</I>,5<I>S</I>,6<I>R</I>)-3,4,5-trihydroxy-6-(hydroxymethyl)oxan-2-yl]oxyoxan-2-yl]oxy-3,5-dihydroxy-6-methyloxan-2-yl]oxy-4,5-dihydroxyoxan-2-yl]oxy-2,2,6<I>a</I>,6<I>b</I>,9,9,12<I>a</I>-heptamethyl-1,3,4,5,6,6<I>a</I>,7,8,8<I>a</I>,10,11,12,13,14<I>b</I>-tetradecahydropicene-4<I>a</I>-carboxylic acid

> <PUBCHEM_IUPAC_NAME>
(4aS,6aR,6aS,6bR,8aR,10S,12aR,14bS)-10-[(2S,3S,4R,5R)-3-[(2S,3R,4R,5S,6S)-4-[(2S,3R,4R,5R)-3,4-dihydroxy-5-[(2S,3R,4S,5S,6R)-3,4,5-trihydroxy-6-(hydroxymethyl)oxan-2-yl]oxyoxan-2-yl]oxy-3,5-dihydroxy-6-methyloxan-2-yl]oxy-4,5-dihydroxyoxan-2-yl]oxy-2,2,6a,6b,9,9,12a-heptamethyl-1,3,4,5,6,6a,7,8,8a,10,11,12,13,14b-tetradecahydropicene-4a-carboxylic acid

> <PUBCHEM_IUPAC_SYSTEMATIC_NAME>
(4aS,6aR,6aS,6bR,8aR,10S,12aR,14bS)-10-[(2S,3S,4R,5R)-3-[(2S,3R,4R,5S,6S)-4-[(2S,3R,4R,5R)-5-[(2S,3R,4S,5S,6R)-6-(hydroxymethyl)-3,4,5-tris(oxidanyl)oxan-2-yl]oxy-3,4-bis(oxidanyl)oxan-2-yl]oxy-6-methyl-3,5-bis(oxidanyl)oxan-2-yl]oxy-4,5-bis(oxidanyl)oxan-2-yl]oxy-2,2,6a,6b,9,9,12a-heptamethyl-1,3,4,5,6,6a,7,8,8a,10,11,12,13,14b-tetradecahydropicene-4a-carboxylic acid

> <PUBCHEM_IUPAC_TRADITIONAL_NAME>
(4aS,6aR,6aS,6bR,8aR,10S,12aR,14bS)-10-[(2S,3S,4R,5R)-3-[(2S,3R,4R,5S,6S)-4-[(2S,3R,4R,5R)-3,4-dihydroxy-5-[(2S,3R,4S,5S,6R)-3,4,5-trihydroxy-6-methylol-tetrahydropyran-2-yl]oxy-tetrahydropyran-2-yl]oxy-3,5-dihydroxy-6-methyl-tetrahydropyran-2-yl]oxy-4,5-dihydroxy-tetrahydropyran-2-yl]oxy-2,2,6a,6b,9,9,12a-heptamethyl-1,3,4,5,6,6a,7,8,8a,10,11,12,13,14b-tetradecahydropicene-4a-carboxylic acid

> <PUBCHEM_IUPAC_INCHI>
InChI=1S/C52H84O20/c1-23-32(55)40(71-42-37(60)35(58)28(22-66-42)69-43-38(61)36(59)34(57)27(20-53)68-43)39(62)44(67-23)72-41-33(56)26(54)21-65-45(41)70-31-12-13-49(6)29(48(31,4)5)11-14-51(8)30(49)10-9-24-25-19-47(2,3)15-17-52(25,46(63)64)18-16-50(24,51)7/h9,23,25-45,53-62H,10-22H2,1-8H3,(H,63,64)/t23-,25-,26+,27+,28+,29-,30+,31-,32-,33+,34+,35-,36-,37+,38+,39+,40+,41-,42-,43-,44-,45-,49-,50+,51+,52-/m0/s1

> <PUBCHEM_IUPAC_INCHIKEY>
SQMQSLVVHZAFKJ-FZNJPSDMSA-N

> <PUBCHEM_XLOGP3_AA>
1.7

> <PUBCHEM_EXACT_MASS>
1028.55559506

> <PUBCHEM_MOLECULAR_FORMULA>
C52H84O20

> <PUBCHEM_MOLECULAR_WEIGHT>
1029.2

> <PUBCHEM_OPENEYE_CAN_SMILES>
CC1C(C(C(C(O1)OC2C(C(COC2OC3CCC4(C(C3(C)C)CCC5(C4CC=C6C5(CCC7(C6CC(CC7)(C)C)C(=O)O)C)C)C)O)O)O)OC8C(C(C(CO8)OC9C(C(C(C(O9)CO)O)O)O)O)O)O

> <PUBCHEM_OPENEYE_ISO_SMILES>
C[C@H]1[C@@H]([C@H]([C@H]([C@@H](O1)O[C@H]2[C@@H]([C@@H](CO[C@H]2O[C@H]3CC[C@]4([C@H](C3(C)C)CC[C@@]5([C@@H]4CC=C6[C@]5(CC[C@@]7([C@H]6CC(CC7)(C)C)C(=O)O)C)C)C)O)O)O)O[C@H]8[C@@H]([C@H]([C@@H](CO8)O[C@H]9[C@@H]([C@H]([C@@H]([C@H](O9)CO)O)O)O)O)O)O

> <PUBCHEM_CACTVS_TPSA>
313

> <PUBCHEM_MONOISOTOPIC_WEIGHT>
1028.55559506

> <PUBCHEM_TOTAL_CHARGE>
0

> <PUBCHEM_HEAVY_ATOM_COUNT>
72

> <PUBCHEM_ATOM_DEF_STEREO_COUNT>
26

> <PUBCHEM_ATOM_UDEF_STEREO_COUNT>
0

> <PUBCHEM_BOND_DEF_STEREO_COUNT>
0

> <PUBCHEM_BOND_UDEF_STEREO_COUNT>
0

> <PUBCHEM_ISOTOPIC_ATOM_COUNT>
0

> <PUBCHEM_COMPONENT_COUNT>
1

> <PUBCHEM_CACTVS_TAUTO_COUNT>
-1

> <PUBCHEM_COORDINATE_TYPE>
1
5
255

> <PUBCHEM_BONDANNOTATIONS>
36  1  5
51  1  5
58  10  6
62  10  5
60  11  5
63  13  6
64  14  5
65  15  6
67  15  5
68  17  6
69  18  5
71  19  6
21  35  5
22  73  6
23  38  5
24  41  6
25  74  6
32  83  5
34  48  5
52  5  5
56  5  5
59  61  6
53  6  6
55  7  6
70  72  5
57  9  6

$$$$
