21635821
  -OEChem-02232223592D

160168  0     1  0  0  0  0  0999 V2000
    8.6184   -3.1527    0.0000 O   0  0  0  0  0  0  0  0  0  0  0  0
    6.8645    6.1267    0.0000 O   0  0  0  0  0  0  0  0  0  0  0  0
    5.9812    4.6368    0.0000 O   0  0  0  0  0  0  0  0  0  0  0  0
    6.8863   -3.1527    0.0000 O   0  0  0  0  0  0  0  0  0  0  0  0
    8.6184   -5.1527    0.0000 O   0  0  0  0  0  0  0  0  0  0  0  0
    5.1326    6.1467    0.0000 O   0  0  0  0  0  0  0  0  0  0  0  0
    6.8863   -6.1527    0.0000 O   0  0  0  0  0  0  0  0  0  0  0  0
    5.1542   -5.1527    0.0000 O   0  0  0  0  0  0  0  0  0  0  0  0
    6.8877    8.1266    0.0000 O   0  0  0  0  0  0  0  0  0  0  0  0
    5.1673    9.1465    0.0000 O   0  0  0  0  0  0  0  0  0  0  0  0
    9.4844   -3.6527    0.0000 O   0  0  0  0  0  0  0  0  0  0  0  0
    3.4238    8.1666    0.0000 O   0  0  0  0  0  0  0  0  0  0  0  0
    5.1542   -6.1527    0.0000 O   0  0  0  0  0  0  0  0  0  0  0  0
   10.3504   -6.1527    0.0000 O   0  0  0  0  0  0  0  0  0  0  0  0
    2.5405    6.6768    0.0000 O   0  0  0  0  0  0  0  0  0  0  0  0
    6.8863   -8.1527    0.0000 O   0  0  0  0  0  0  0  0  0  0  0  0
   12.0824   -5.1527    0.0000 O   0  0  0  0  0  0  0  0  0  0  0  0
   12.0824   -3.1527    0.0000 O   0  0  0  0  0  0  0  0  0  0  0  0
    5.1542   -9.1527    0.0000 O   0  0  0  0  0  0  0  0  0  0  0  0
    3.4222   -8.1527    0.0000 O   0  0  0  0  0  0  0  0  0  0  0  0
    2.5562   -6.6527    0.0000 O   0  0  0  0  0  0  0  0  0  0  0  0
    7.7173    1.5475    0.0000 C   0  0  2  0  0  0  0  0  0  0  0  0
    8.5814    1.0442    0.0000 C   0  0  1  0  0  0  0  0  0  0  0  0
    8.5934    0.0026    0.0000 C   0  0  2  0  0  0  0  0  0  0  0  0
    7.7211    2.5475    0.0000 C   0  0  1  0  0  0  0  0  0  0  0  0
    7.6934   -0.5217    0.0000 C   0  0  2  0  0  0  0  0  0  0  0  0
    6.8053    1.0442    0.0000 C   0  0  0  0  0  0  0  0  0  0  0  0
    7.6808   -1.6066    0.0000 C   0  0  0  0  0  0  0  0  0  0  0  0
    6.7933    0.0026    0.0000 C   0  0  0  0  0  0  0  0  0  0  0  0
    8.5891    3.0442    0.0000 C   0  0  0  0  0  0  0  0  0  0  0  0
    8.6092    4.0856    0.0000 C   0  0  1  0  0  0  0  0  0  0  0  0
    9.4493    1.5408    0.0000 C   0  0  0  0  0  0  0  0  0  0  0  0
    9.5433   -0.5217    0.0000 C   0  0  0  0  0  0  0  0  0  0  0  0
    6.8131    3.0578    0.0000 C   0  0  0  0  0  0  0  0  0  0  0  0
    7.7132    4.6168    0.0000 C   0  0  1  0  0  0  0  0  0  0  0  0
    6.7332    1.7249    0.0000 C   0  0  0  0  0  0  0  0  0  0  0  0
    8.6184   -2.1527    0.0000 C   0  0  2  0  0  0  0  0  0  0  0  0
    6.8091    4.0995    0.0000 C   0  0  0  0  0  0  0  0  0  0  0  0
    9.4575    0.5059    0.0000 C   0  0  0  0  0  0  0  0  0  0  0  0
    9.4532    2.5408    0.0000 C   0  0  0  0  0  0  0  0  0  0  0  0
    9.5559   -1.6066    0.0000 C   0  0  0  0  0  0  0  0  0  0  0  0
    6.7357    2.3777    0.0000 C   0  0  0  0  0  0  0  0  0  0  0  0
    9.5631    4.6025    0.0000 C   0  0  0  0  0  0  0  0  0  0  0  0
    7.7090    5.7018    0.0000 C   0  0  0  0  0  0  0  0  0  0  0  0
    9.5840    5.6873    0.0000 C   0  0  0  0  0  0  0  0  0  0  0  0
    6.6808   -1.5989    0.0000 C   0  0  0  0  0  0  0  0  0  0  0  0
    7.1742   -2.4688    0.0000 C   0  0  0  0  0  0  0  0  0  0  0  0
    8.6507    6.2406    0.0000 C   0  0  0  0  0  0  0  0  0  0  0  0
    6.8530    5.1268    0.0000 C   0  0  0  0  0  0  0  0  0  0  0  0
   10.0973    6.5455    0.0000 C   0  0  0  0  0  0  0  0  0  0  0  0
   10.5839    5.6719    0.0000 C   0  0  0  0  0  0  0  0  0  0  0  0
    7.7523   -3.6527    0.0000 C   0  0  2  0  0  0  0  0  0  0  0  0
    7.7523   -4.6527    0.0000 C   0  0  1  0  0  0  0  0  0  0  0  0
    6.0043    6.6367    0.0000 C   0  0  2  0  0  0  0  0  0  0  0  0
    6.8863   -5.1527    0.0000 C   0  0  2  0  0  0  0  0  0  0  0  0
    6.0203   -3.6527    0.0000 C   0  0  0  0  0  0  0  0  0  0  0  0
    6.0203   -4.6527    0.0000 C   0  0  2  0  0  0  0  0  0  0  0  0
    6.0159    7.6366    0.0000 C   0  0  1  0  0  0  0  0  0  0  0  0
    5.1557    8.1466    0.0000 C   0  0  2  0  0  0  0  0  0  0  0  0
    4.2724    6.6567    0.0000 C   0  0  1  0  0  0  0  0  0  0  0  0
    4.2840    7.6566    0.0000 C   0  0  1  0  0  0  0  0  0  0  0  0
    9.4844   -4.6527    0.0000 C   0  0  2  0  0  0  0  0  0  0  0  0
    6.0203   -6.6527    0.0000 C   0  0  2  0  0  0  0  0  0  0  0  0
   10.3504   -5.1527    0.0000 C   0  0  1  0  0  0  0  0  0  0  0  0
    3.4007    6.1668    0.0000 C   0  0  0  0  0  0  0  0  0  0  0  0
    6.0203   -7.6527    0.0000 C   0  0  1  0  0  0  0  0  0  0  0  0
   11.2164   -4.6527    0.0000 C   0  0  1  0  0  0  0  0  0  0  0  0
   10.3504   -3.1527    0.0000 C   0  0  2  0  0  0  0  0  0  0  0  0
   11.2164   -3.6527    0.0000 C   0  0  2  0  0  0  0  0  0  0  0  0
    5.1542   -8.1527    0.0000 C   0  0  2  0  0  0  0  0  0  0  0  0
    4.2882   -6.6527    0.0000 C   0  0  1  0  0  0  0  0  0  0  0  0
    4.2882   -7.6527    0.0000 C   0  0  1  0  0  0  0  0  0  0  0  0
   10.3504   -2.1527    0.0000 C   0  0  0  0  0  0  0  0  0  0  0  0
    3.4222   -6.1527    0.0000 C   0  0  0  0  0  0  0  0  0  0  0  0
    9.3191    0.6220    0.0000 H   0  0  0  0  0  0  0  0  0  0  0  0
    6.9540   -0.9410    0.0000 H   0  0  0  0  0  0  0  0  0  0  0  0
    6.6030    1.6302    0.0000 H   0  0  0  0  0  0  0  0  0  0  0  0
    6.1933    0.9451    0.0000 H   0  0  0  0  0  0  0  0  0  0  0  0
    6.1837    0.1158    0.0000 H   0  0  0  0  0  0  0  0  0  0  0  0
    6.5775   -0.5786    0.0000 H   0  0  0  0  0  0  0  0  0  0  0  0
    9.3353    3.6437    0.0000 H   0  0  0  0  0  0  0  0  0  0  0  0
    9.6591    0.9574    0.0000 H   0  0  0  0  0  0  0  0  0  0  0  0
   10.0603    1.6461    0.0000 H   0  0  0  0  0  0  0  0  0  0  0  0
   10.1554   -0.6207    0.0000 H   0  0  0  0  0  0  0  0  0  0  0  0
    9.7456    0.0644    0.0000 H   0  0  0  0  0  0  0  0  0  0  0  0
    6.2018    3.1616    0.0000 H   0  0  0  0  0  0  0  0  0  0  0  0
    6.6063    2.4734    0.0000 H   0  0  0  0  0  0  0  0  0  0  0  0
    6.8432    2.3351    0.0000 H   0  0  0  0  0  0  0  0  0  0  0  0
    6.1230    1.8350    0.0000 H   0  0  0  0  0  0  0  0  0  0  0  0
    6.6231    1.1148    0.0000 H   0  0  0  0  0  0  0  0  0  0  0  0
    8.0808   -2.4617    0.0000 H   0  0  0  0  0  0  0  0  0  0  0  0
    6.5978    4.6823    0.0000 H   0  0  0  0  0  0  0  0  0  0  0  0
    6.1986    3.9910    0.0000 H   0  0  0  0  0  0  0  0  0  0  0  0
    9.7696   -0.0298    0.0000 H   0  0  0  0  0  0  0  0  0  0  0  0
    9.9932    0.8180    0.0000 H   0  0  0  0  0  0  0  0  0  0  0  0
    9.1454    1.0417    0.0000 H   0  0  0  0  0  0  0  0  0  0  0  0
    9.9913    2.8487    0.0000 H   0  0  0  0  0  0  0  0  0  0  0  0
    9.7717   -2.1878    0.0000 H   0  0  0  0  0  0  0  0  0  0  0  0
   10.1655   -1.4935    0.0000 H   0  0  0  0  0  0  0  0  0  0  0  0
    6.6304    2.9887    0.0000 H   0  0  0  0  0  0  0  0  0  0  0  0
    6.1247    2.2724    0.0000 H   0  0  0  0  0  0  0  0  0  0  0  0
    6.8410    1.7667    0.0000 H   0  0  0  0  0  0  0  0  0  0  0  0
    9.7608    4.0149    0.0000 H   0  0  0  0  0  0  0  0  0  0  0  0
   10.1759    4.6968    0.0000 H   0  0  0  0  0  0  0  0  0  0  0  0
    7.4977    6.2847    0.0000 H   0  0  0  0  0  0  0  0  0  0  0  0
    7.0985    5.5933    0.0000 H   0  0  0  0  0  0  0  0  0  0  0  0
    6.6856   -0.9789    0.0000 H   0  0  0  0  0  0  0  0  0  0  0  0
    6.0609   -1.5941    0.0000 H   0  0  0  0  0  0  0  0  0  0  0  0
    6.6761   -2.2189    0.0000 H   0  0  0  0  0  0  0  0  0  0  0  0
    6.6396   -2.1546    0.0000 H   0  0  0  0  0  0  0  0  0  0  0  0
    6.8600   -3.0033    0.0000 H   0  0  0  0  0  0  0  0  0  0  0  0
    7.7087   -2.7829    0.0000 H   0  0  0  0  0  0  0  0  0  0  0  0
    9.0535    6.7120    0.0000 H   0  0  0  0  0  0  0  0  0  0  0  0
    8.2552    6.7182    0.0000 H   0  0  0  0  0  0  0  0  0  0  0  0
   10.6294    6.2273    0.0000 H   0  0  0  0  0  0  0  0  0  0  0  0
   10.4155    7.0776    0.0000 H   0  0  0  0  0  0  0  0  0  0  0  0
    9.5652    6.8638    0.0000 H   0  0  0  0  0  0  0  0  0  0  0  0
   10.5743    5.0520    0.0000 H   0  0  0  0  0  0  0  0  0  0  0  0
   11.2038    5.6624    0.0000 H   0  0  0  0  0  0  0  0  0  0  0  0
   10.5934    6.2918    0.0000 H   0  0  0  0  0  0  0  0  0  0  0  0
    8.2893   -3.9627    0.0000 H   0  0  0  0  0  0  0  0  0  0  0  0
    7.7523   -5.2727    0.0000 H   0  0  0  0  0  0  0  0  0  0  0  0
    5.9972    6.0167    0.0000 H   0  0  0  0  0  0  0  0  0  0  0  0
    6.3494   -5.4627    0.0000 H   0  0  0  0  0  0  0  0  0  0  0  0
    5.8082   -3.0701    0.0000 H   0  0  0  0  0  0  0  0  0  0  0  0
    5.4097   -3.7604    0.0000 H   0  0  0  0  0  0  0  0  0  0  0  0
    5.4833   -4.3427    0.0000 H   0  0  0  0  0  0  0  0  0  0  0  0
    6.5492    7.3204    0.0000 H   0  0  0  0  0  0  0  0  0  0  0  0
    4.6224    8.4628    0.0000 H   0  0  0  0  0  0  0  0  0  0  0  0
    4.2652    6.0368    0.0000 H   0  0  0  0  0  0  0  0  0  0  0  0
    3.7435    7.3529    0.0000 H   0  0  0  0  0  0  0  0  0  0  0  0
    9.4844   -5.2727    0.0000 H   0  0  0  0  0  0  0  0  0  0  0  0
    4.6173   -4.8427    0.0000 H   0  0  0  0  0  0  0  0  0  0  0  0
    6.8948    8.7465    0.0000 H   0  0  0  0  0  0  0  0  0  0  0  0
    6.0203   -6.0327    0.0000 H   0  0  0  0  0  0  0  0  0  0  0  0
   10.8873   -5.4627    0.0000 H   0  0  0  0  0  0  0  0  0  0  0  0
    2.9967    5.6965    0.0000 H   0  0  0  0  0  0  0  0  0  0  0  0
    3.7937    5.6872    0.0000 H   0  0  0  0  0  0  0  0  0  0  0  0
    4.6340    9.4627    0.0000 H   0  0  0  0  0  0  0  0  0  0  0  0
    6.0203   -8.2727    0.0000 H   0  0  0  0  0  0  0  0  0  0  0  0
   11.2164   -5.2727    0.0000 H   0  0  0  0  0  0  0  0  0  0  0  0
    3.4310    8.7866    0.0000 H   0  0  0  0  0  0  0  0  0  0  0  0
    9.8135   -2.8427    0.0000 H   0  0  0  0  0  0  0  0  0  0  0  0
   11.7534   -3.9627    0.0000 H   0  0  0  0  0  0  0  0  0  0  0  0
    4.6173   -8.4627    0.0000 H   0  0  0  0  0  0  0  0  0  0  0  0
    4.2882   -6.0327    0.0000 H   0  0  0  0  0  0  0  0  0  0  0  0
    9.8135   -6.4627    0.0000 H   0  0  0  0  0  0  0  0  0  0  0  0
    4.2882   -8.2727    0.0000 H   0  0  0  0  0  0  0  0  0  0  0  0
    2.0000    6.3730    0.0000 H   0  0  0  0  0  0  0  0  0  0  0  0
   10.9704   -2.1527    0.0000 H   0  0  0  0  0  0  0  0  0  0  0  0
   10.3504   -1.5327    0.0000 H   0  0  0  0  0  0  0  0  0  0  0  0
    9.7304   -2.1527    0.0000 H   0  0  0  0  0  0  0  0  0  0  0  0
    7.4232   -7.8427    0.0000 H   0  0  0  0  0  0  0  0  0  0  0  0
   12.6194   -4.8427    0.0000 H   0  0  0  0  0  0  0  0  0  0  0  0
   12.0824   -2.5327    0.0000 H   0  0  0  0  0  0  0  0  0  0  0  0
    3.8207   -5.6778    0.0000 H   0  0  0  0  0  0  0  0  0  0  0  0
    3.0237   -5.6778    0.0000 H   0  0  0  0  0  0  0  0  0  0  0  0
    5.6912   -9.4627    0.0000 H   0  0  0  0  0  0  0  0  0  0  0  0
    3.4222   -8.7727    0.0000 H   0  0  0  0  0  0  0  0  0  0  0  0
    2.0192   -6.3427    0.0000 H   0  0  0  0  0  0  0  0  0  0  0  0
 37  1  1  6  0  0  0
 52  1  1  1  0  0  0
  2 49  1  0  0  0  0
 54  2  1  6  0  0  0
  3 49  2  0  0  0  0
  4 52  1  0  0  0  0
  4 56  1  0  0  0  0
 53  5  1  6  0  0  0
 62  5  1  6  0  0  0
  6 54  1  0  0  0  0
  6 60  1  0  0  0  0
 55  7  1  1  0  0  0
 63  7  1  1  0  0  0
 57  8  1  1  0  0  0
  8133  1  0  0  0  0
 58  9  1  1  0  0  0
  9134  1  0  0  0  0
 59 10  1  6  0  0  0
 10139  1  0  0  0  0
 11 62  1  0  0  0  0
 11 68  1  0  0  0  0
 61 12  1  1  0  0  0
 12142  1  0  0  0  0
 13 63  1  0  0  0  0
 13 71  1  0  0  0  0
 64 14  1  1  0  0  0
 14147  1  0  0  0  0
 15 65  1  0  0  0  0
 15149  1  0  0  0  0
 66 16  1  6  0  0  0
 16153  1  0  0  0  0
 67 17  1  1  0  0  0
 17154  1  0  0  0  0
 69 18  1  6  0  0  0
 18155  1  0  0  0  0
 70 19  1  1  0  0  0
 19158  1  0  0  0  0
 72 20  1  6  0  0  0
 20159  1  0  0  0  0
 21 74  1  0  0  0  0
 21160  1  0  0  0  0
 22 23  1  0  0  0  0
 22 25  1  0  0  0  0
 22 27  1  0  0  0  0
 22 36  1  6  0  0  0
 23 24  1  0  0  0  0
 23 32  1  0  0  0  0
 23 75  1  1  0  0  0
 24 26  1  0  0  0  0
 24 33  1  0  0  0  0
 24 39  1  6  0  0  0
 25 30  1  0  0  0  0
 25 34  1  0  0  0  0
 25 42  1  1  0  0  0
 26 28  1  0  0  0  0
 26 29  1  0  0  0  0
 26 76  1  1  0  0  0
 27 29  1  0  0  0  0
 27 77  1  0  0  0  0
 27 78  1  0  0  0  0
 28 37  1  0  0  0  0
 28 46  1  0  0  0  0
 28 47  1  0  0  0  0
 29 79  1  0  0  0  0
 29 80  1  0  0  0  0
 30 31  1  0  0  0  0
 30 40  2  0  0  0  0
 31 35  1  0  0  0  0
 31 43  1  0  0  0  0
 31 81  1  6  0  0  0
 32 40  1  0  0  0  0
 32 82  1  0  0  0  0
 32 83  1  0  0  0  0
 33 41  1  0  0  0  0
 33 84  1  0  0  0  0
 33 85  1  0  0  0  0
 34 38  1  0  0  0  0
 34 86  1  0  0  0  0
 34 87  1  0  0  0  0
 35 38  1  0  0  0  0
 35 44  1  0  0  0  0
 35 49  1  6  0  0  0
 36 88  1  0  0  0  0
 36 89  1  0  0  0  0
 36 90  1  0  0  0  0
 37 41  1  0  0  0  0
 37 91  1  0  0  0  0
 38 92  1  0  0  0  0
 38 93  1  0  0  0  0
 39 94  1  0  0  0  0
 39 95  1  0  0  0  0
 39 96  1  0  0  0  0
 40 97  1  0  0  0  0
 41 98  1  0  0  0  0
 41 99  1  0  0  0  0
 42100  1  0  0  0  0
 42101  1  0  0  0  0
 42102  1  0  0  0  0
 43 45  1  0  0  0  0
 43103  1  0  0  0  0
 43104  1  0  0  0  0
 44 48  1  0  0  0  0
 44105  1  0  0  0  0
 44106  1  0  0  0  0
 45 48  1  0  0  0  0
 45 50  1  0  0  0  0
 45 51  1  0  0  0  0
 46107  1  0  0  0  0
 46108  1  0  0  0  0
 46109  1  0  0  0  0
 47110  1  0  0  0  0
 47111  1  0  0  0  0
 47112  1  0  0  0  0
 48113  1  0  0  0  0
 48114  1  0  0  0  0
 50115  1  0  0  0  0
 50116  1  0  0  0  0
 50117  1  0  0  0  0
 51118  1  0  0  0  0
 51119  1  0  0  0  0
 51120  1  0  0  0  0
 52 53  1  0  0  0  0
 52121  1  0  0  0  0
 53 55  1  0  0  0  0
 53122  1  0  0  0  0
 54 58  1  0  0  0  0
 54123  1  0  0  0  0
 55 57  1  0  0  0  0
 55124  1  0  0  0  0
 56 57  1  0  0  0  0
 56125  1  0  0  0  0
 56126  1  0  0  0  0
 57127  1  0  0  0  0
 58 59  1  0  0  0  0
 58128  1  0  0  0  0
 59 61  1  0  0  0  0
 59129  1  0  0  0  0
 60 61  1  0  0  0  0
 60 65  1  6  0  0  0
 60130  1  0  0  0  0
 61131  1  0  0  0  0
 62 64  1  0  0  0  0
 62132  1  0  0  0  0
 63 66  1  0  0  0  0
 63135  1  0  0  0  0
 64 67  1  0  0  0  0
 64136  1  0  0  0  0
 65137  1  0  0  0  0
 65138  1  0  0  0  0
 66 70  1  0  0  0  0
 66140  1  0  0  0  0
 67 69  1  0  0  0  0
 67141  1  0  0  0  0
 68 69  1  0  0  0  0
 68 73  1  1  0  0  0
 68143  1  0  0  0  0
 69144  1  0  0  0  0
 70 72  1  0  0  0  0
 70145  1  0  0  0  0
 71 72  1  0  0  0  0
 71 74  1  1  0  0  0
 71146  1  0  0  0  0
 72148  1  0  0  0  0
 73150  1  0  0  0  0
 73151  1  0  0  0  0
 73152  1  0  0  0  0
 74156  1  0  0  0  0
 74157  1  0  0  0  0
M  END
> <PUBCHEM_COMPOUND_CID>
21635821

> <PUBCHEM_COMPOUND_CANONICALIZED>
1

> <PUBCHEM_CACTVS_COMPLEXITY>
2040

> <PUBCHEM_CACTVS_HBOND_ACCEPTOR>
21

> <PUBCHEM_CACTVS_HBOND_DONOR>
12

> <PUBCHEM_CACTVS_ROTATABLE_BOND>
11

> <PUBCHEM_CACTVS_SUBSKEYS>
AAADcfB8PgAAAAAAAAAAAAAAAAAAAAAAAAA0aNGiAAAAAADAAAAAGgAACAAADxSwgAMCCAAABgCIAiDSCAAAAAAgAAAACAEAAAgREBIAAQAiQAAFgAAPAAPI6PyPgAAAAAAAAADAAAYAADAAAAAAAAAAAA==

> <PUBCHEM_IUPAC_OPENEYE_NAME>
[(2S,3R,4S,5S,6R)-3,4,5-trihydroxy-6-(hydroxymethyl)tetrahydropyran-2-yl] (4aS,6aR,6aS,6bR,8aR,10S,12aR,14bS)-10-[(2S,3R,4S,5S)-5-hydroxy-4-[(2S,3R,4S,5S,6R)-3,4,5-trihydroxy-6-(hydroxymethyl)tetrahydropyran-2-yl]oxy-3-[(2S,3R,4R,5R,6S)-3,4,5-trihydroxy-6-methyl-tetrahydropyran-2-yl]oxy-tetrahydropyran-2-yl]oxy-2,2,6a,6b,9,9,12a-heptamethyl-1,3,4,5,6,6a,7,8,8a,10,11,12,13,14b-tetradecahydropicene-4a-carboxylate

> <PUBCHEM_IUPAC_CAS_NAME>
(4aS,6aR,6aS,6bR,8aR,10S,12aR,14bS)-10-[[(2S,3R,4S,5S)-5-hydroxy-4-[[(2S,3R,4S,5S,6R)-3,4,5-trihydroxy-6-(hydroxymethyl)-2-oxanyl]oxy]-3-[[(2S,3R,4R,5R,6S)-3,4,5-trihydroxy-6-methyl-2-oxanyl]oxy]-2-oxanyl]oxy]-2,2,6a,6b,9,9,12a-heptamethyl-1,3,4,5,6,6a,7,8,8a,10,11,12,13,14b-tetradecahydropicene-4a-carboxylic acid [(2S,3R,4S,5S,6R)-3,4,5-trihydroxy-6-(hydroxymethyl)-2-oxanyl] ester

> <PUBCHEM_IUPAC_NAME_MARKUP>
[(2<I>S</I>,3<I>R</I>,4<I>S</I>,5<I>S</I>,6<I>R</I>)-3,4,5-trihydroxy-6-(hydroxymethyl)oxan-2-yl] (4<I>a</I><I>S</I>,6<I>a</I><I>R</I>,6<I>a</I><I>S</I>,6<I>b</I><I>R</I>,8<I>a</I><I>R</I>,10<I>S</I>,12<I>a</I><I>R</I>,14<I>b</I><I>S</I>)-10-[(2<I>S</I>,3<I>R</I>,4<I>S</I>,5<I>S</I>)-5-hydroxy-4-[(2<I>S</I>,3<I>R</I>,4<I>S</I>,5<I>S</I>,6<I>R</I>)-3,4,5-trihydroxy-6-(hydroxymethyl)oxan-2-yl]oxy-3-[(2<I>S</I>,3<I>R</I>,4<I>R</I>,5<I>R</I>,6<I>S</I>)-3,4,5-trihydroxy-6-methyloxan-2-yl]oxyoxan-2-yl]oxy-2,2,6<I>a</I>,6<I>b</I>,9,9,12<I>a</I>-heptamethyl-1,3,4,5,6,6<I>a</I>,7,8,8<I>a</I>,10,11,12,13,14<I>b</I>-tetradecahydropicene-4<I>a</I>-carboxylate

> <PUBCHEM_IUPAC_NAME>
[(2S,3R,4S,5S,6R)-3,4,5-trihydroxy-6-(hydroxymethyl)oxan-2-yl] (4aS,6aR,6aS,6bR,8aR,10S,12aR,14bS)-10-[(2S,3R,4S,5S)-5-hydroxy-4-[(2S,3R,4S,5S,6R)-3,4,5-trihydroxy-6-(hydroxymethyl)oxan-2-yl]oxy-3-[(2S,3R,4R,5R,6S)-3,4,5-trihydroxy-6-methyloxan-2-yl]oxyoxan-2-yl]oxy-2,2,6a,6b,9,9,12a-heptamethyl-1,3,4,5,6,6a,7,8,8a,10,11,12,13,14b-tetradecahydropicene-4a-carboxylate

> <PUBCHEM_IUPAC_SYSTEMATIC_NAME>
[(2S,3R,4S,5S,6R)-6-(hydroxymethyl)-3,4,5-tris(oxidanyl)oxan-2-yl] (4aS,6aR,6aS,6bR,8aR,10S,12aR,14bS)-10-[(2S,3R,4S,5S)-4-[(2S,3R,4S,5S,6R)-6-(hydroxymethyl)-3,4,5-tris(oxidanyl)oxan-2-yl]oxy-3-[(2S,3R,4R,5R,6S)-6-methyl-3,4,5-tris(oxidanyl)oxan-2-yl]oxy-5-oxidanyl-oxan-2-yl]oxy-2,2,6a,6b,9,9,12a-heptamethyl-1,3,4,5,6,6a,7,8,8a,10,11,12,13,14b-tetradecahydropicene-4a-carboxylate

> <PUBCHEM_IUPAC_TRADITIONAL_NAME>
(4aS,6aR,6aS,6bR,8aR,10S,12aR,14bS)-10-[(2S,3R,4S,5S)-5-hydroxy-4-[(2S,3R,4S,5S,6R)-3,4,5-trihydroxy-6-methylol-tetrahydropyran-2-yl]oxy-3-[(2S,3R,4R,5R,6S)-3,4,5-trihydroxy-6-methyl-tetrahydropyran-2-yl]oxy-tetrahydropyran-2-yl]oxy-2,2,6a,6b,9,9,12a-heptamethyl-1,3,4,5,6,6a,7,8,8a,10,11,12,13,14b-tetradecahydropicene-4a-carboxylic acid [(2S,3R,4S,5S,6R)-3,4,5-trihydroxy-6-methylol-tetrahydropyran-2-yl] ester

> <PUBCHEM_IUPAC_INCHI>
InChI=1S/C53H86O21/c1-23-32(57)35(60)38(63)43(68-23)73-42-41(72-44-39(64)36(61)33(58)27(20-54)69-44)26(56)22-67-46(42)71-31-12-13-50(6)29(49(31,4)5)11-14-52(8)30(50)10-9-24-25-19-48(2,3)15-17-53(25,18-16-51(24,52)7)47(66)74-45-40(65)37(62)34(59)28(21-55)70-45/h9,23,25-46,54-65H,10-22H2,1-8H3/t23-,25-,26-,27+,28+,29-,30+,31-,32-,33+,34+,35+,36-,37-,38+,39+,40+,41-,42+,43-,44-,45-,46-,50-,51+,52+,53-/m0/s1

> <PUBCHEM_IUPAC_INCHIKEY>
ULSOTXJNUTYKRK-DFRCHCFDSA-N

> <PUBCHEM_XLOGP3_AA>
1.5

> <PUBCHEM_EXACT_MASS>
1058.56615975

> <PUBCHEM_MOLECULAR_FORMULA>
C53H86O21

> <PUBCHEM_MOLECULAR_WEIGHT>
1059.2

> <PUBCHEM_OPENEYE_CAN_SMILES>
CC1C(C(C(C(O1)OC2C(C(COC2OC3CCC4(C(C3(C)C)CCC5(C4CC=C6C5(CCC7(C6CC(CC7)(C)C)C(=O)OC8C(C(C(C(O8)CO)O)O)O)C)C)C)O)OC9C(C(C(C(O9)CO)O)O)O)O)O)O

> <PUBCHEM_OPENEYE_ISO_SMILES>
C[C@H]1[C@@H]([C@H]([C@H]([C@@H](O1)O[C@@H]2[C@H]([C@H](CO[C@H]2O[C@H]3CC[C@]4([C@H](C3(C)C)CC[C@@]5([C@@H]4CC=C6[C@]5(CC[C@@]7([C@H]6CC(CC7)(C)C)C(=O)O[C@H]8[C@@H]([C@H]([C@@H]([C@H](O8)CO)O)O)O)C)C)C)O)O[C@H]9[C@@H]([C@H]([C@@H]([C@H](O9)CO)O)O)O)O)O)O

> <PUBCHEM_CACTVS_TPSA>
334

> <PUBCHEM_MONOISOTOPIC_WEIGHT>
1058.56615975

> <PUBCHEM_TOTAL_CHARGE>
0

> <PUBCHEM_HEAVY_ATOM_COUNT>
74

> <PUBCHEM_ATOM_DEF_STEREO_COUNT>
27

> <PUBCHEM_ATOM_UDEF_STEREO_COUNT>
0

> <PUBCHEM_BOND_DEF_STEREO_COUNT>
0

> <PUBCHEM_BOND_UDEF_STEREO_COUNT>
0

> <PUBCHEM_ISOTOPIC_ATOM_COUNT>
0

> <PUBCHEM_COMPONENT_COUNT>
1

> <PUBCHEM_CACTVS_TAUTO_COUNT>
-1

> <PUBCHEM_COORDINATE_TYPE>
1
5
255

> <PUBCHEM_BONDANNOTATIONS>
37  1  6
52  1  5
59  10  6
61  12  5
64  14  5
66  16  6
67  17  5
69  18  6
70  19  5
54  2  6
72  20  6
22  36  6
23  75  5
24  39  6
25  42  5
26  76  5
31  81  6
35  49  6
53  5  6
62  5  6
60  65  6
68  73  5
55  7  5
63  7  5
71  74  5
57  8  5
58  9  5

$$$$
