484757
  -OEChem-02242200192D

 56 61  0     1  0  0  0  0  0999 V2000
    5.0422   -2.1219    0.0000 O   0  0  0  0  0  0  0  0  0  0  0  0
    9.9127    2.1189    0.0000 O   0  0  0  0  0  0  0  0  0  0  0  0
    8.0902   -3.9009    0.0000 O   0  0  0  0  0  0  0  0  0  0  0  0
    6.8540    3.9006    0.0000 O   0  0  0  0  0  0  0  0  0  0  0  0
    2.4600    0.9285    0.0000 O   0  0  0  0  0  0  0  0  0  0  0  0
   12.4914   -0.9506    0.0000 O   0  0  0  0  0  0  0  0  0  0  0  0
    7.0691    0.2854    0.0000 C   0  0  2  0  0  0  0  0  0  0  0  0
    7.8781   -0.3023    0.0000 C   0  0  2  0  0  0  0  0  0  0  0  0
    6.2664   -0.3010    0.0000 C   0  0  1  0  0  0  0  0  0  0  0  0
    8.6871    0.2854    0.0000 C   0  0  1  0  0  0  0  0  0  0  0  0
    7.3781    1.2365    0.0000 C   0  0  0  0  0  0  0  0  0  0  0  0
    7.5685   -1.2470    0.0000 C   0  0  0  0  0  0  0  0  0  0  0  0
    6.5744   -1.2461    0.0000 C   0  0  0  0  0  0  0  0  0  0  0  0
    8.3781    1.2365    0.0000 C   0  0  0  0  0  0  0  0  0  0  0  0
    5.3148    0.0064    0.0000 C   0  0  0  0  0  0  0  0  0  0  0  0
    9.6382   -0.0236    0.0000 C   0  0  0  0  0  0  0  0  0  0  0  0
    6.8434    2.1304    0.0000 C   0  0  0  0  0  0  0  0  0  0  0  0
    8.0992   -2.1361    0.0000 C   0  0  0  0  0  0  0  0  0  0  0  0
    6.0421   -2.1343    0.0000 C   0  0  0  0  0  0  0  0  0  0  0  0
    8.9128    2.1304    0.0000 C   0  0  0  0  0  0  0  0  0  0  0  0
    7.5876   -3.0363    0.0000 C   0  0  0  0  0  0  0  0  0  0  0  0
    7.3573    3.0365    0.0000 C   0  0  0  0  0  0  0  0  0  0  0  0
    6.5522   -3.0354    0.0000 C   0  0  0  0  0  0  0  0  0  0  0  0
    8.3989    3.0365    0.0000 C   0  0  0  0  0  0  0  0  0  0  0  0
    4.5728   -0.6640    0.0000 C   0  0  0  0  0  0  0  0  0  0  0  0
    9.8461   -1.0017    0.0000 C   0  0  0  0  0  0  0  0  0  0  0  0
    5.1052    0.9842    0.0000 C   0  0  0  0  0  0  0  0  0  0  0  0
   10.3813    0.6456    0.0000 C   0  0  0  0  0  0  0  0  0  0  0  0
    3.6212   -0.3566    0.0000 C   0  0  0  0  0  0  0  0  0  0  0  0
   10.7972   -1.3107    0.0000 C   0  0  0  0  0  0  0  0  0  0  0  0
    4.1536    1.2916    0.0000 C   0  0  0  0  0  0  0  0  0  0  0  0
   11.3324    0.3365    0.0000 C   0  0  0  0  0  0  0  0  0  0  0  0
    3.4116    0.6212    0.0000 C   0  0  0  0  0  0  0  0  0  0  0  0
   11.5403   -0.6416    0.0000 C   0  0  0  0  0  0  0  0  0  0  0  0
    6.3808    0.7842    0.0000 H   0  0  0  0  0  0  0  0  0  0  0  0
    8.5651   -0.8029    0.0000 H   0  0  0  0  0  0  0  0  0  0  0  0
    5.8286   -0.7399    0.0000 H   0  0  0  0  0  0  0  0  0  0  0  0
    8.7841   -0.3269    0.0000 H   0  0  0  0  0  0  0  0  0  0  0  0
    6.2235    2.1233    0.0000 H   0  0  0  0  0  0  0  0  0  0  0  0
    8.7192   -2.1294    0.0000 H   0  0  0  0  0  0  0  0  0  0  0  0
    6.2396   -3.5709    0.0000 H   0  0  0  0  0  0  0  0  0  0  0  0
    8.7110    3.5722    0.0000 H   0  0  0  0  0  0  0  0  0  0  0  0
    4.7028   -1.2702    0.0000 H   0  0  0  0  0  0  0  0  0  0  0  0
    9.3854   -1.4166    0.0000 H   0  0  0  0  0  0  0  0  0  0  0  0
    5.5652    1.3999    0.0000 H   0  0  0  0  0  0  0  0  0  0  0  0
   10.2524    1.2520    0.0000 H   0  0  0  0  0  0  0  0  0  0  0  0
    4.7256   -2.6549    0.0000 H   0  0  0  0  0  0  0  0  0  0  0  0
   10.2289    2.6522    0.0000 H   0  0  0  0  0  0  0  0  0  0  0  0
    3.1612   -0.7723    0.0000 H   0  0  0  0  0  0  0  0  0  0  0  0
   10.9261   -1.9172    0.0000 H   0  0  0  0  0  0  0  0  0  0  0  0
    4.0236    1.8978    0.0000 H   0  0  0  0  0  0  0  0  0  0  0  0
   11.7931    0.7514    0.0000 H   0  0  0  0  0  0  0  0  0  0  0  0
    7.7818   -4.4387    0.0000 H   0  0  0  0  0  0  0  0  0  0  0  0
    7.1619    4.4387    0.0000 H   0  0  0  0  0  0  0  0  0  0  0  0
    2.0000    0.5129    0.0000 H   0  0  0  0  0  0  0  0  0  0  0  0
   12.9521   -0.5358    0.0000 H   0  0  0  0  0  0  0  0  0  0  0  0
  1 19  1  0  0  0  0
  1 47  1  0  0  0  0
  2 20  1  0  0  0  0
  2 48  1  0  0  0  0
  3 21  1  0  0  0  0
  3 53  1  0  0  0  0
  4 22  1  0  0  0  0
  4 54  1  0  0  0  0
  5 33  1  0  0  0  0
  5 55  1  0  0  0  0
  6 34  1  0  0  0  0
  6 56  1  0  0  0  0
  7  8  1  0  0  0  0
  7  9  1  0  0  0  0
  7 11  1  0  0  0  0
  7 35  1  1  0  0  0
  8 10  1  0  0  0  0
  8 12  1  0  0  0  0
  8 36  1  1  0  0  0
  9 13  1  0  0  0  0
  9 15  1  1  0  0  0
  9 37  1  0  0  0  0
 10 14  1  0  0  0  0
 10 16  1  1  0  0  0
 10 38  1  0  0  0  0
 11 14  2  0  0  0  0
 11 17  1  0  0  0  0
 12 13  2  0  0  0  0
 12 18  1  0  0  0  0
 13 19  1  0  0  0  0
 14 20  1  0  0  0  0
 15 25  2  0  0  0  0
 15 27  1  0  0  0  0
 16 26  2  0  0  0  0
 16 28  1  0  0  0  0
 17 22  2  0  0  0  0
 17 39  1  0  0  0  0
 18 21  2  0  0  0  0
 18 40  1  0  0  0  0
 19 23  2  0  0  0  0
 20 24  2  0  0  0  0
 21 23  1  0  0  0  0
 22 24  1  0  0  0  0
 23 41  1  0  0  0  0
 24 42  1  0  0  0  0
 25 29  1  0  0  0  0
 25 43  1  0  0  0  0
 26 30  1  0  0  0  0
 26 44  1  0  0  0  0
 27 31  2  0  0  0  0
 27 45  1  0  0  0  0
 28 32  2  0  0  0  0
 28 46  1  0  0  0  0
 29 33  2  0  0  0  0
 29 49  1  0  0  0  0
 30 34  2  0  0  0  0
 30 50  1  0  0  0  0
 31 33  1  0  0  0  0
 31 51  1  0  0  0  0
 32 34  1  0  0  0  0
 32 52  1  0  0  0  0
M  END
> <PUBCHEM_COMPOUND_CID>
484757

> <PUBCHEM_COMPOUND_CANONICALIZED>
1

> <PUBCHEM_CACTVS_COMPLEXITY>
656

> <PUBCHEM_CACTVS_HBOND_ACCEPTOR>
6

> <PUBCHEM_CACTVS_HBOND_DONOR>
6

> <PUBCHEM_CACTVS_ROTATABLE_BOND>
2

> <PUBCHEM_CACTVS_SUBSKEYS>
AAADceB4OAAAAAAAAAAAAAAAAAAAAYMAAAAwYMGAAAAYAGABVAAAGgAACAAADQSAmAAwBoAAAgCAAiBCAAACAAAgIAAIiAAGCIgIJyKCERKAcAAlwBUImAeA4PQOoAABCAAYAABAAAIQADAAAQAACAAAAA==

> <PUBCHEM_IUPAC_OPENEYE_NAME>
(4bR,5R,9bR,10R)-5,10-bis(4-hydroxyphenyl)-4b,5,9b,10-tetrahydroindeno[2,1-a]indene-1,3,6,8-tetrol

> <PUBCHEM_IUPAC_CAS_NAME>
(4bR,5R,9bR,10R)-5,10-bis(4-hydroxyphenyl)-4b,5,9b,10-tetrahydroindeno[2,1-a]indene-1,3,6,8-tetrol

> <PUBCHEM_IUPAC_NAME_MARKUP>
(4<I>b</I><I>R</I>,5<I>R</I>,9<I>b</I><I>R</I>,10<I>R</I>)-5,10-bis(4-hydroxyphenyl)-4<I>b</I>,5,9<I>b</I>,10-tetrahydroindeno[2,1-a]indene-1,3,6,8-tetrol

> <PUBCHEM_IUPAC_NAME>
(4bR,5R,9bR,10R)-5,10-bis(4-hydroxyphenyl)-4b,5,9b,10-tetrahydroindeno[2,1-a]indene-1,3,6,8-tetrol

> <PUBCHEM_IUPAC_SYSTEMATIC_NAME>
(4bR,5R,9bR,10R)-5,10-bis(4-hydroxyphenyl)-4b,5,9b,10-tetrahydroindeno[2,1-a]indene-1,3,6,8-tetrol

> <PUBCHEM_IUPAC_TRADITIONAL_NAME>
(4bR,5R,9bR,10R)-5,10-bis(4-hydroxyphenyl)-4b,5,9b,10-tetrahydroinden[2,1-a]indene-1,3,6,8-tetrol

> <PUBCHEM_IUPAC_INCHI>
InChI=1S/C28H22O6/c29-15-5-1-13(2-6-15)23-25-19(9-17(31)11-21(25)33)28-24(14-3-7-16(30)8-4-14)26-20(27(23)28)10-18(32)12-22(26)34/h1-12,23-24,27-34H/t23-,24-,27+,28+/m1/s1

> <PUBCHEM_IUPAC_INCHIKEY>
YNVJOQCPHWKWSO-ZBVBGGFBSA-N

> <PUBCHEM_XLOGP3_AA>
4.6

> <PUBCHEM_EXACT_MASS>
454.14163842

> <PUBCHEM_MOLECULAR_FORMULA>
C28H22O6

> <PUBCHEM_MOLECULAR_WEIGHT>
454.5

> <PUBCHEM_OPENEYE_CAN_SMILES>
C1=CC(=CC=C1C2C3C(C(C4=C3C=C(C=C4O)O)C5=CC=C(C=C5)O)C6=C2C(=CC(=C6)O)O)O

> <PUBCHEM_OPENEYE_ISO_SMILES>
C1=CC(=CC=C1[C@H]2[C@H]3[C@H]([C@@H](C4=C3C=C(C=C4O)O)C5=CC=C(C=C5)O)C6=C2C(=CC(=C6)O)O)O

> <PUBCHEM_CACTVS_TPSA>
121

> <PUBCHEM_MONOISOTOPIC_WEIGHT>
454.14163842

> <PUBCHEM_TOTAL_CHARGE>
0

> <PUBCHEM_HEAVY_ATOM_COUNT>
34

> <PUBCHEM_ATOM_DEF_STEREO_COUNT>
4

> <PUBCHEM_ATOM_UDEF_STEREO_COUNT>
0

> <PUBCHEM_BOND_DEF_STEREO_COUNT>
0

> <PUBCHEM_BOND_UDEF_STEREO_COUNT>
0

> <PUBCHEM_ISOTOPIC_ATOM_COUNT>
0

> <PUBCHEM_COMPONENT_COUNT>
1

> <PUBCHEM_CACTVS_TAUTO_COUNT>
-1

> <PUBCHEM_COORDINATE_TYPE>
1
5
255

> <PUBCHEM_BONDANNOTATIONS>
10  16  5
11  14  8
11  17  8
12  13  8
12  18  8
13  19  8
14  20  8
15  25  8
15  27  8
16  26  8
16  28  8
17  22  8
18  21  8
19  23  8
20  24  8
21  23  8
22  24  8
25  29  8
26  30  8
27  31  8
28  32  8
29  33  8
30  34  8
31  33  8
32  34  8
7  35  5
8  36  5
9  15  5

$$$$
