70680259
  -OEChem-02242200082D

 98103  0     1  0  0  0  0  0999 V2000
    8.6036   -1.9563    0.0000 O   0  0  0  0  0  0  0  0  0  0  0  0
    8.6198    0.1353    0.0000 O   0  0  0  0  0  0  0  0  0  0  0  0
   10.4179   -3.7342    0.0000 O   0  0  0  0  0  0  0  0  0  0  0  0
   17.5287    1.1302    0.0000 O   0  0  0  0  0  0  0  0  0  0  0  0
   16.6743   -0.3764    0.0000 O   0  0  0  0  0  0  0  0  0  0  0  0
    7.7434   -0.4529    0.0000 O   0  0  0  0  0  0  0  0  0  0  0  0
    2.5357   -3.4329    0.0000 O   0  0  0  0  0  0  0  0  0  0  0  0
   13.1307   -0.4039    0.0000 C   0  0  2  0  0  0  0  0  0  0  0  0
   11.3547   -0.4108    0.0000 C   0  0  2  0  0  0  0  0  0  0  0  0
   12.2647    0.0961    0.0000 C   0  0  1  0  0  0  0  0  0  0  0  0
   13.9967    0.0961    0.0000 C   0  0  1  0  0  0  0  0  0  0  0  0
   11.3467   -1.4524    0.0000 C   0  0  2  0  0  0  0  0  0  0  0  0
   13.1468   -1.4454    0.0000 C   0  0  0  0  0  0  0  0  0  0  0  0
   10.4112   -2.0021    0.0000 C   0  0  1  0  0  0  0  0  0  0  0  0
   12.2487   -1.9732    0.0000 C   0  0  0  0  0  0  0  0  0  0  0  0
   13.9967    1.0961    0.0000 C   0  0  0  0  0  0  0  0  0  0  0  0
   10.4278    0.1533    0.0000 C   0  0  0  0  0  0  0  0  0  0  0  0
   12.2647    1.0961    0.0000 C   0  0  0  0  0  0  0  0  0  0  0  0
   14.8907   -0.4386    0.0000 C   0  0  0  0  0  0  0  0  0  0  0  0
   14.8907    1.6307    0.0000 C   0  0  1  0  0  0  0  0  0  0  0  0
   15.7967    1.1169    0.0000 C   0  0  1  0  0  0  0  0  0  0  0  0
    9.4716   -1.4596    0.0000 C   0  0  2  0  0  0  0  0  0  0  0  0
   13.7735   -1.1700    0.0000 C   0  0  0  0  0  0  0  0  0  0  0  0
    9.4800   -0.3747    0.0000 C   0  0  2  0  0  0  0  0  0  0  0  0
   11.3624    0.5892    0.0000 C   0  0  0  0  0  0  0  0  0  0  0  0
   15.7967    0.0752    0.0000 C   0  0  0  0  0  0  0  0  0  0  0  0
   13.1307    1.5961    0.0000 C   0  0  0  0  0  0  0  0  0  0  0  0
   14.3389   -0.8436    0.0000 C   0  0  0  0  0  0  0  0  0  0  0  0
   14.8656    2.7154    0.0000 C   0  0  2  0  0  0  0  0  0  0  0  0
    9.9146   -2.8701    0.0000 C   0  0  0  0  0  0  0  0  0  0  0  0
   10.9146   -2.8662    0.0000 C   0  0  0  0  0  0  0  0  0  0  0  0
   16.7405    1.6521    0.0000 C   0  0  0  0  0  0  0  0  0  0  0  0
   16.7405    2.7371    0.0000 C   0  0  0  0  0  0  0  0  0  0  0  0
   15.7967    3.2723    0.0000 C   0  0  0  0  0  0  0  0  0  0  0  0
   16.6666    0.6236    0.0000 C   0  0  0  0  0  0  0  0  0  0  0  0
   13.9901    3.1986    0.0000 C   0  0  0  0  0  0  0  0  0  0  0  0
   15.7852    4.2723    0.0000 C   0  0  0  0  0  0  0  0  0  0  0  0
    7.7396   -1.4529    0.0000 C   0  0  0  0  0  0  0  0  0  0  0  0
    6.8716   -1.9496    0.0000 C   0  0  0  0  0  0  0  0  0  0  0  0
    6.0075   -1.4463    0.0000 C   0  0  0  0  0  0  0  0  0  0  0  0
    5.1396   -1.9429    0.0000 C   0  0  0  0  0  0  0  0  0  0  0  0
    5.1357   -2.9429    0.0000 C   0  0  0  0  0  0  0  0  0  0  0  0
    4.2755   -1.4396    0.0000 C   0  0  0  0  0  0  0  0  0  0  0  0
    4.2678   -3.4396    0.0000 C   0  0  0  0  0  0  0  0  0  0  0  0
    3.4075   -1.9362    0.0000 C   0  0  0  0  0  0  0  0  0  0  0  0
    3.4037   -2.9362    0.0000 C   0  0  0  0  0  0  0  0  0  0  0  0
   13.0008    0.5211    0.0000 H   0  0  0  0  0  0  0  0  0  0  0  0
   11.3499   -2.3024    0.0000 H   0  0  0  0  0  0  0  0  0  0  0  0
   13.3648   -2.0258    0.0000 H   0  0  0  0  0  0  0  0  0  0  0  0
   13.7559   -1.3300    0.0000 H   0  0  0  0  0  0  0  0  0  0  0  0
   11.8514   -2.4492    0.0000 H   0  0  0  0  0  0  0  0  0  0  0  0
   12.6497   -2.4461    0.0000 H   0  0  0  0  0  0  0  0  0  0  0  0
   10.8361    0.6199    0.0000 H   0  0  0  0  0  0  0  0  0  0  0  0
   10.0379    0.6353    0.0000 H   0  0  0  0  0  0  0  0  0  0  0  0
   12.0526    1.6787    0.0000 H   0  0  0  0  0  0  0  0  0  0  0  0
   11.6541    0.9884    0.0000 H   0  0  0  0  0  0  0  0  0  0  0  0
   14.4861   -0.9084    0.0000 H   0  0  0  0  0  0  0  0  0  0  0  0
   15.2843   -0.9176    0.0000 H   0  0  0  0  0  0  0  0  0  0  0  0
   14.1465    2.0415    0.0000 H   0  0  0  0  0  0  0  0  0  0  0  0
    9.4704   -2.0796    0.0000 H   0  0  0  0  0  0  0  0  0  0  0  0
   13.2985   -1.5685    0.0000 H   0  0  0  0  0  0  0  0  0  0  0  0
   14.1720   -1.6449    0.0000 H   0  0  0  0  0  0  0  0  0  0  0  0
   14.2484   -0.7715    0.0000 H   0  0  0  0  0  0  0  0  0  0  0  0
    8.9401   -0.6795    0.0000 H   0  0  0  0  0  0  0  0  0  0  0  0
   11.9824    0.5844    0.0000 H   0  0  0  0  0  0  0  0  0  0  0  0
   11.3672    1.2092    0.0000 H   0  0  0  0  0  0  0  0  0  0  0  0
   10.7424    0.5940    0.0000 H   0  0  0  0  0  0  0  0  0  0  0  0
   16.0058   -0.5084    0.0000 H   0  0  0  0  0  0  0  0  0  0  0  0
   16.4076    0.1813    0.0000 H   0  0  0  0  0  0  0  0  0  0  0  0
   13.1307    2.2161    0.0000 H   0  0  0  0  0  0  0  0  0  0  0  0
   13.7563   -1.0557    0.0000 H   0  0  0  0  0  0  0  0  0  0  0  0
   14.5510   -1.4262    0.0000 H   0  0  0  0  0  0  0  0  0  0  0  0
   14.9214   -0.6315    0.0000 H   0  0  0  0  0  0  0  0  0  0  0  0
   14.8548    3.3353    0.0000 H   0  0  0  0  0  0  0  0  0  0  0  0
    9.4381   -2.4734    0.0000 H   0  0  0  0  0  0  0  0  0  0  0  0
    9.4412   -3.2704    0.0000 H   0  0  0  0  0  0  0  0  0  0  0  0
   10.3788   -3.1783    0.0000 H   0  0  0  0  0  0  0  0  0  0  0  0
   11.2266   -3.4019    0.0000 H   0  0  0  0  0  0  0  0  0  0  0  0
   11.4503   -2.5541    0.0000 H   0  0  0  0  0  0  0  0  0  0  0  0
   16.9496    1.0684    0.0000 H   0  0  0  0  0  0  0  0  0  0  0  0
   17.3514    1.7582    0.0000 H   0  0  0  0  0  0  0  0  0  0  0  0
   17.3514    2.6310    0.0000 H   0  0  0  0  0  0  0  0  0  0  0  0
   16.9496    3.3208    0.0000 H   0  0  0  0  0  0  0  0  0  0  0  0
    8.6270    0.7553    0.0000 H   0  0  0  0  0  0  0  0  0  0  0  0
   14.2897    3.7414    0.0000 H   0  0  0  0  0  0  0  0  0  0  0  0
   13.4473    3.4982    0.0000 H   0  0  0  0  0  0  0  0  0  0  0  0
   13.6905    2.6558    0.0000 H   0  0  0  0  0  0  0  0  0  0  0  0
   10.1100   -4.2723    0.0000 H   0  0  0  0  0  0  0  0  0  0  0  0
   16.3185    4.5885    0.0000 H   0  0  0  0  0  0  0  0  0  0  0  0
   15.2447    4.5761    0.0000 H   0  0  0  0  0  0  0  0  0  0  0  0
   18.0681    0.8244    0.0000 H   0  0  0  0  0  0  0  0  0  0  0  0
    6.8692   -2.5696    0.0000 H   0  0  0  0  0  0  0  0  0  0  0  0
    6.0099   -0.8263    0.0000 H   0  0  0  0  0  0  0  0  0  0  0  0
    5.6715   -3.2550    0.0000 H   0  0  0  0  0  0  0  0  0  0  0  0
    4.2779   -0.8196    0.0000 H   0  0  0  0  0  0  0  0  0  0  0  0
    4.2654   -4.0596    0.0000 H   0  0  0  0  0  0  0  0  0  0  0  0
    2.8718   -1.6242    0.0000 H   0  0  0  0  0  0  0  0  0  0  0  0
    2.0000   -3.1208    0.0000 H   0  0  0  0  0  0  0  0  0  0  0  0
 22  1  1  1  0  0  0
  1 38  1  0  0  0  0
 24  2  1  6  0  0  0
  2 84  1  0  0  0  0
  3 30  1  0  0  0  0
  3 88  1  0  0  0  0
  4 35  1  0  0  0  0
  4 91  1  0  0  0  0
  5 35  2  0  0  0  0
  6 38  2  0  0  0  0
  7 46  1  0  0  0  0
  7 98  1  0  0  0  0
  8 10  1  0  0  0  0
  8 11  1  0  0  0  0
  8 13  1  0  0  0  0
  8 23  1  1  0  0  0
  9 10  1  0  0  0  0
  9 12  1  0  0  0  0
  9 17  1  0  0  0  0
  9 25  1  1  0  0  0
 10 18  1  0  0  0  0
 10 47  1  6  0  0  0
 11 16  1  0  0  0  0
 11 19  1  0  0  0  0
 11 28  1  6  0  0  0
 12 14  1  0  0  0  0
 12 15  1  0  0  0  0
 12 48  1  6  0  0  0
 13 15  1  0  0  0  0
 13 49  1  0  0  0  0
 13 50  1  0  0  0  0
 14 22  1  0  0  0  0
 14 30  1  0  0  0  0
 14 31  1  1  0  0  0
 15 51  1  0  0  0  0
 15 52  1  0  0  0  0
 16 20  1  0  0  0  0
 16 27  2  0  0  0  0
 17 24  1  0  0  0  0
 17 53  1  0  0  0  0
 17 54  1  0  0  0  0
 18 27  1  0  0  0  0
 18 55  1  0  0  0  0
 18 56  1  0  0  0  0
 19 26  1  0  0  0  0
 19 57  1  0  0  0  0
 19 58  1  0  0  0  0
 20 21  1  0  0  0  0
 20 29  1  0  0  0  0
 20 59  1  1  0  0  0
 21 26  1  0  0  0  0
 21 32  1  0  0  0  0
 21 35  1  1  0  0  0
 22 24  1  0  0  0  0
 22 60  1  0  0  0  0
 23 61  1  0  0  0  0
 23 62  1  0  0  0  0
 23 63  1  0  0  0  0
 24 64  1  0  0  0  0
 25 65  1  0  0  0  0
 25 66  1  0  0  0  0
 25 67  1  0  0  0  0
 26 68  1  0  0  0  0
 26 69  1  0  0  0  0
 27 70  1  0  0  0  0
 28 71  1  0  0  0  0
 28 72  1  0  0  0  0
 28 73  1  0  0  0  0
 29 34  1  0  0  0  0
 29 36  1  1  0  0  0
 29 74  1  0  0  0  0
 30 75  1  0  0  0  0
 30 76  1  0  0  0  0
 31 77  1  0  0  0  0
 31 78  1  0  0  0  0
 31 79  1  0  0  0  0
 32 33  1  0  0  0  0
 32 80  1  0  0  0  0
 32 81  1  0  0  0  0
 33 34  1  0  0  0  0
 33 82  1  0  0  0  0
 33 83  1  0  0  0  0
 34 37  2  0  0  0  0
 36 85  1  0  0  0  0
 36 86  1  0  0  0  0
 36 87  1  0  0  0  0
 37 89  1  0  0  0  0
 37 90  1  0  0  0  0
 38 39  1  0  0  0  0
 39 40  2  0  0  0  0
 39 92  1  0  0  0  0
 40 41  1  0  0  0  0
 40 93  1  0  0  0  0
 41 42  2  0  0  0  0
 41 43  1  0  0  0  0
 42 44  1  0  0  0  0
 42 94  1  0  0  0  0
 43 45  2  0  0  0  0
 43 95  1  0  0  0  0
 44 46  2  0  0  0  0
 44 96  1  0  0  0  0
 45 46  1  0  0  0  0
 45 97  1  0  0  0  0
M  END
> <PUBCHEM_COMPOUND_CID>
70680259

> <PUBCHEM_COMPOUND_CANONICALIZED>
1

> <PUBCHEM_CACTVS_COMPLEXITY>
1310

> <PUBCHEM_CACTVS_HBOND_ACCEPTOR>
7

> <PUBCHEM_CACTVS_HBOND_DONOR>
4

> <PUBCHEM_CACTVS_ROTATABLE_BOND>
6

> <PUBCHEM_CACTVS_SUBSKEYS>
AAADcfB8OAAAAAAAAAAAAAAAAAAAAAAAAAAwYMGDAAAAAADBAAAAGgAACAAADxSgmAIyDoAABgCIAiDSCAACAAAgIAAIiAEGCMgJNjKCMRKCcAAlwBELuYfIyPCPoAAAAAAAAADAAAYAADCAAAAAAAAAAA==

> <PUBCHEM_IUPAC_OPENEYE_NAME>
(1R,4aS,6aR,6aS,6bR,8aR,9R,10R,11R,12aR,14bS)-11-hydroxy-9-(hydroxymethyl)-10-[(E)-3-(4-hydroxyphenyl)prop-2-enoyl]oxy-1,6a,6b,9,12a-pentamethyl-2-methylene-1,3,4,5,6,6a,7,8,8a,10,11,12,13,14b-tetradecahydropicene-4a-carboxylic acid

> <PUBCHEM_IUPAC_CAS_NAME>
(1R,4aS,6aR,6aS,6bR,8aR,9R,10R,11R,12aR,14bS)-11-hydroxy-9-(hydroxymethyl)-10-[(E)-3-(4-hydroxyphenyl)-1-oxoprop-2-enoxy]-1,6a,6b,9,12a-pentamethyl-2-methylene-1,3,4,5,6,6a,7,8,8a,10,11,12,13,14b-tetradecahydropicene-4a-carboxylic acid

> <PUBCHEM_IUPAC_NAME_MARKUP>
(1<I>R</I>,4<I>a</I><I>S</I>,6<I>a</I><I>R</I>,6<I>a</I><I>S</I>,6<I>b</I><I>R</I>,8<I>a</I><I>R</I>,9<I>R</I>,10<I>R</I>,11<I>R</I>,12<I>a</I><I>R</I>,14<I>b</I><I>S</I>)-11-hydroxy-9-(hydroxymethyl)-10-[(<I>E</I>)-3-(4-hydroxyphenyl)prop-2-enoyl]oxy-1,6<I>a</I>,6<I>b</I>,9,12<I>a</I>-pentamethyl-2-methylidene-1,3,4,5,6,6<I>a</I>,7,8,8<I>a</I>,10,11,12,13,14<I>b</I>-tetradecahydropicene-4<I>a</I>-carboxylic acid

> <PUBCHEM_IUPAC_NAME>
(1R,4aS,6aR,6aS,6bR,8aR,9R,10R,11R,12aR,14bS)-11-hydroxy-9-(hydroxymethyl)-10-[(E)-3-(4-hydroxyphenyl)prop-2-enoyl]oxy-1,6a,6b,9,12a-pentamethyl-2-methylidene-1,3,4,5,6,6a,7,8,8a,10,11,12,13,14b-tetradecahydropicene-4a-carboxylic acid

> <PUBCHEM_IUPAC_SYSTEMATIC_NAME>
(1R,4aS,6aR,6aS,6bR,8aR,9R,10R,11R,12aR,14bS)-9-(hydroxymethyl)-10-[(E)-3-(4-hydroxyphenyl)prop-2-enoyl]oxy-1,6a,6b,9,12a-pentamethyl-2-methylidene-11-oxidanyl-1,3,4,5,6,6a,7,8,8a,10,11,12,13,14b-tetradecahydropicene-4a-carboxylic acid

> <PUBCHEM_IUPAC_TRADITIONAL_NAME>
(1R,4aS,6aR,6aS,6bR,8aR,9R,10R,11R,12aR,14bS)-11-hydroxy-10-[(E)-3-(4-hydroxyphenyl)acryloyl]oxy-1,6a,6b,9,12a-pentamethyl-2-methylene-9-methylol-1,3,4,5,6,6a,7,8,8a,10,11,12,13,14b-tetradecahydropicene-4a-carboxylic acid

> <PUBCHEM_IUPAC_INCHI>
InChI=1S/C39H52O7/c1-23-15-18-39(34(44)45)20-19-37(5)27(32(39)24(23)2)12-13-30-35(3)21-28(42)33(36(4,22-40)29(35)16-17-38(30,37)6)46-31(43)14-9-25-7-10-26(41)11-8-25/h7-12,14,24,28-30,32-33,40-42H,1,13,15-22H2,2-6H3,(H,44,45)/b14-9+/t24-,28+,29+,30+,32-,33-,35-,36-,37+,38+,39-/m0/s1

> <PUBCHEM_IUPAC_INCHIKEY>
IFPMSAOPSQVFLA-VYXVHPRESA-N

> <PUBCHEM_XLOGP3_AA>
6.6

> <PUBCHEM_EXACT_MASS>
632.37130399

> <PUBCHEM_MOLECULAR_FORMULA>
C39H52O7

> <PUBCHEM_MOLECULAR_WEIGHT>
632.8

> <PUBCHEM_OPENEYE_CAN_SMILES>
CC1C2C3=CCC4C(C3(CCC2(CCC1=C)C(=O)O)C)(CCC5C4(CC(C(C5(C)CO)OC(=O)C=CC6=CC=C(C=C6)O)O)C)C

> <PUBCHEM_OPENEYE_ISO_SMILES>
C[C@@H]1[C@H]2C3=CC[C@H]4[C@]([C@@]3(CC[C@]2(CCC1=C)C(=O)O)C)(CC[C@@H]5[C@@]4(C[C@H]([C@@H]([C@@]5(C)CO)OC(=O)/C=C/C6=CC=C(C=C6)O)O)C)C

> <PUBCHEM_CACTVS_TPSA>
124

> <PUBCHEM_MONOISOTOPIC_WEIGHT>
632.37130399

> <PUBCHEM_TOTAL_CHARGE>
0

> <PUBCHEM_HEAVY_ATOM_COUNT>
46

> <PUBCHEM_ATOM_DEF_STEREO_COUNT>
11

> <PUBCHEM_ATOM_UDEF_STEREO_COUNT>
0

> <PUBCHEM_BOND_DEF_STEREO_COUNT>
1

> <PUBCHEM_BOND_UDEF_STEREO_COUNT>
0

> <PUBCHEM_ISOTOPIC_ATOM_COUNT>
0

> <PUBCHEM_COMPONENT_COUNT>
1

> <PUBCHEM_CACTVS_TAUTO_COUNT>
-1

> <PUBCHEM_COORDINATE_TYPE>
1
5
255

> <PUBCHEM_BONDANNOTATIONS>
22  1  5
10  47  6
11  28  6
12  48  6
14  31  5
24  2  6
20  59  5
21  35  5
29  36  5
41  42  8
41  43  8
42  44  8
43  45  8
44  46  8
45  46  8
8  23  5
9  25  5

$$$$
