101774142
  -OEChem-02242200352D

 65 68  0     1  0  0  0  0  0999 V2000
    8.0901   -3.5571    0.0000 O   0  0  0  0  0  0  0  0  0  0  0  0
    5.5254    0.0612    0.0000 O   0  0  0  0  0  0  0  0  0  0  0  0
    4.5981   -3.5224    0.0000 O   0  0  0  0  0  0  0  0  0  0  0  0
    5.3301    3.6055    0.0000 O   0  0  0  0  0  0  0  0  0  0  0  0
    8.9962   -3.0432    0.0000 C   0  0  3  0  0  0  0  0  0  0  0  0
    9.9962   -3.0471    0.0000 C   0  0  0  0  0  0  0  0  0  0  0  0
    7.1962   -2.0224    0.0000 C   0  0  0  0  0  0  0  0  0  0  0  0
    8.9962   -2.0016    0.0000 C   0  0  0  0  0  0  0  0  0  0  0  0
    7.1962   -3.0224    0.0000 C   0  0  0  0  0  0  0  0  0  0  0  0
    9.4928   -3.9112    0.0000 C   0  0  0  0  0  0  0  0  0  0  0  0
    6.3301   -1.5224    0.0000 C   0  0  0  0  0  0  0  0  0  0  0  0
   10.4995   -2.1830    0.0000 C   0  0  0  0  0  0  0  0  0  0  0  0
    8.0901   -1.4878    0.0000 C   0  0  0  0  0  0  0  0  0  0  0  0
    5.4641   -2.0224    0.0000 C   0  0  0  0  0  0  0  0  0  0  0  0
    6.3301   -3.5224    0.0000 C   0  0  0  0  0  0  0  0  0  0  0  0
    5.4641   -3.0224    0.0000 C   0  0  0  0  0  0  0  0  0  0  0  0
    6.3301   -0.5224    0.0000 C   0  0  0  0  0  0  0  0  0  0  0  0
    4.5981   -1.5224    0.0000 C   0  0  0  0  0  0  0  0  0  0  0  0
   11.4995   -2.1869    0.0000 C   0  0  0  0  0  0  0  0  0  0  0  0
    7.1349    0.0612    0.0000 C   0  0  0  0  0  0  0  0  0  0  0  0
    6.8301    1.0074    0.0000 C   0  0  0  0  0  0  0  0  0  0  0  0
    5.8301    1.0074    0.0000 C   0  0  0  0  0  0  0  0  0  0  0  0
   12.0028   -1.3228    0.0000 C   0  0  0  0  0  0  0  0  0  0  0  0
    3.7320   -2.0224    0.0000 C   0  0  0  0  0  0  0  0  0  0  0  0
    7.3301    1.8734    0.0000 C   0  0  0  0  0  0  0  0  0  0  0  0
    2.8660   -1.5224    0.0000 C   0  0  0  0  0  0  0  0  0  0  0  0
    5.3301    1.8734    0.0000 C   0  0  0  0  0  0  0  0  0  0  0  0
   13.0028   -1.3266    0.0000 C   0  0  0  0  0  0  0  0  0  0  0  0
   11.5062   -0.4548    0.0000 C   0  0  0  0  0  0  0  0  0  0  0  0
    5.8301    2.7395    0.0000 C   0  0  0  0  0  0  0  0  0  0  0  0
    6.8301    2.7395    0.0000 C   0  0  0  0  0  0  0  0  0  0  0  0
    2.0000   -2.0224    0.0000 C   0  0  0  0  0  0  0  0  0  0  0  0
    2.8660   -0.5224    0.0000 C   0  0  0  0  0  0  0  0  0  0  0  0
    9.8861   -3.6572    0.0000 H   0  0  0  0  0  0  0  0  0  0  0  0
   10.5779   -3.2614    0.0000 H   0  0  0  0  0  0  0  0  0  0  0  0
    9.5319   -1.6895    0.0000 H   0  0  0  0  0  0  0  0  0  0  0  0
    8.9547   -4.2191    0.0000 H   0  0  0  0  0  0  0  0  0  0  0  0
    9.8008   -4.4493    0.0000 H   0  0  0  0  0  0  0  0  0  0  0  0
   10.0309   -3.6032    0.0000 H   0  0  0  0  0  0  0  0  0  0  0  0
   10.6095   -1.5728    0.0000 H   0  0  0  0  0  0  0  0  0  0  0  0
    9.9177   -1.9687    0.0000 H   0  0  0  0  0  0  0  0  0  0  0  0
    8.0829   -0.8678    0.0000 H   0  0  0  0  0  0  0  0  0  0  0  0
    6.3301   -4.1424    0.0000 H   0  0  0  0  0  0  0  0  0  0  0  0
    4.9966   -1.0475    0.0000 H   0  0  0  0  0  0  0  0  0  0  0  0
    4.1996   -1.0475    0.0000 H   0  0  0  0  0  0  0  0  0  0  0  0
   11.8074   -2.7250    0.0000 H   0  0  0  0  0  0  0  0  0  0  0  0
    7.7242   -0.1314    0.0000 H   0  0  0  0  0  0  0  0  0  0  0  0
    3.7320   -2.6424    0.0000 H   0  0  0  0  0  0  0  0  0  0  0  0
    4.5981   -4.1424    0.0000 H   0  0  0  0  0  0  0  0  0  0  0  0
    7.9501    1.8734    0.0000 H   0  0  0  0  0  0  0  0  0  0  0  0
    4.7101    1.8734    0.0000 H   0  0  0  0  0  0  0  0  0  0  0  0
   13.0004   -1.9466    0.0000 H   0  0  0  0  0  0  0  0  0  0  0  0
   13.6228   -1.3290    0.0000 H   0  0  0  0  0  0  0  0  0  0  0  0
   13.0052   -0.7066    0.0000 H   0  0  0  0  0  0  0  0  0  0  0  0
   12.0443   -0.1469    0.0000 H   0  0  0  0  0  0  0  0  0  0  0  0
   11.1982    0.0833    0.0000 H   0  0  0  0  0  0  0  0  0  0  0  0
   10.9680   -0.7627    0.0000 H   0  0  0  0  0  0  0  0  0  0  0  0
    7.1401    3.2764    0.0000 H   0  0  0  0  0  0  0  0  0  0  0  0
    1.6900   -1.4855    0.0000 H   0  0  0  0  0  0  0  0  0  0  0  0
    1.4631   -2.3324    0.0000 H   0  0  0  0  0  0  0  0  0  0  0  0
    2.3100   -2.5594    0.0000 H   0  0  0  0  0  0  0  0  0  0  0  0
    3.4860   -0.5224    0.0000 H   0  0  0  0  0  0  0  0  0  0  0  0
    2.8660    0.0976    0.0000 H   0  0  0  0  0  0  0  0  0  0  0  0
    2.2460   -0.5224    0.0000 H   0  0  0  0  0  0  0  0  0  0  0  0
    5.6401    4.1424    0.0000 H   0  0  0  0  0  0  0  0  0  0  0  0
  1  5  1  0  0  0  0
  1  9  1  0  0  0  0
  2 17  1  0  0  0  0
  2 22  1  0  0  0  0
  3 16  1  0  0  0  0
  3 49  1  0  0  0  0
  4 30  1  0  0  0  0
  4 65  1  0  0  0  0
  5  6  1  0  0  0  0
  5  8  1  0  0  0  0
  5 10  1  0  0  0  0
  6 12  1  0  0  0  0
  6 34  1  0  0  0  0
  6 35  1  0  0  0  0
  7  9  2  0  0  0  0
  7 11  1  0  0  0  0
  7 13  1  0  0  0  0
  8 13  2  0  0  0  0
  8 36  1  0  0  0  0
  9 15  1  0  0  0  0
 10 37  1  0  0  0  0
 10 38  1  0  0  0  0
 10 39  1  0  0  0  0
 11 14  2  0  0  0  0
 11 17  1  0  0  0  0
 12 19  1  0  0  0  0
 12 40  1  0  0  0  0
 12 41  1  0  0  0  0
 13 42  1  0  0  0  0
 14 16  1  0  0  0  0
 14 18  1  0  0  0  0
 15 16  2  0  0  0  0
 15 43  1  0  0  0  0
 17 20  2  0  0  0  0
 18 24  1  0  0  0  0
 18 44  1  0  0  0  0
 18 45  1  0  0  0  0
 19 23  2  0  0  0  0
 19 46  1  0  0  0  0
 20 21  1  0  0  0  0
 20 47  1  0  0  0  0
 21 22  2  0  0  0  0
 21 25  1  0  0  0  0
 22 27  1  0  0  0  0
 23 28  1  0  0  0  0
 23 29  1  0  0  0  0
 24 26  2  0  0  0  0
 24 48  1  0  0  0  0
 25 31  2  0  0  0  0
 25 50  1  0  0  0  0
 26 32  1  0  0  0  0
 26 33  1  0  0  0  0
 27 30  2  0  0  0  0
 27 51  1  0  0  0  0
 28 52  1  0  0  0  0
 28 53  1  0  0  0  0
 28 54  1  0  0  0  0
 29 55  1  0  0  0  0
 29 56  1  0  0  0  0
 29 57  1  0  0  0  0
 30 31  1  0  0  0  0
 31 58  1  0  0  0  0
 32 59  1  0  0  0  0
 32 60  1  0  0  0  0
 32 61  1  0  0  0  0
 33 62  1  0  0  0  0
 33 63  1  0  0  0  0
 33 64  1  0  0  0  0
M  END
> <PUBCHEM_COMPOUND_CID>
101774142

> <PUBCHEM_COMPOUND_CANONICALIZED>
1

> <PUBCHEM_CACTVS_COMPLEXITY>
762

> <PUBCHEM_CACTVS_HBOND_ACCEPTOR>
4

> <PUBCHEM_CACTVS_HBOND_DONOR>
2

> <PUBCHEM_CACTVS_ROTATABLE_BOND>
6

> <PUBCHEM_CACTVS_SUBSKEYS>
AAADcfB4OAAAAAAAAAAAAAAAAAAAASAAAAAwYIAAAAAAAEiB9AAAGgAACAAADESAmAAyBsAABkCIAqBSAAACCAAkIAAIiAEGCMgMJzaGNRqCeWCl4BUIuYfK7PzOoAADCAAYAABAAAYQADAAAAAAAAAAAA==

> <PUBCHEM_IUPAC_OPENEYE_NAME>
5-(6-hydroxybenzofuran-2-yl)-2-methyl-6-(3-methylbut-2-enyl)-2-(4-methylpent-3-enyl)chromen-7-ol

> <PUBCHEM_IUPAC_CAS_NAME>
5-(6-hydroxy-2-benzofuranyl)-2-methyl-6-(3-methylbut-2-enyl)-2-(4-methylpent-3-enyl)-1-benzopyran-7-ol

> <PUBCHEM_IUPAC_NAME_MARKUP>
5-(6-hydroxy-1-benzofuran-2-yl)-2-methyl-6-(3-methylbut-2-enyl)-2-(4-methylpent-3-enyl)chromen-7-ol

> <PUBCHEM_IUPAC_NAME>
5-(6-hydroxy-1-benzofuran-2-yl)-2-methyl-6-(3-methylbut-2-enyl)-2-(4-methylpent-3-enyl)chromen-7-ol

> <PUBCHEM_IUPAC_SYSTEMATIC_NAME>
2-methyl-6-(3-methylbut-2-enyl)-2-(4-methylpent-3-enyl)-5-(6-oxidanyl-1-benzofuran-2-yl)chromen-7-ol

> <PUBCHEM_IUPAC_TRADITIONAL_NAME>
5-(6-hydroxybenzofuran-2-yl)-2-methyl-6-(3-methylbut-2-enyl)-2-(4-methylpent-3-enyl)chromen-7-ol

> <PUBCHEM_IUPAC_INCHI>
InChI=1S/C29H32O4/c1-18(2)7-6-13-29(5)14-12-23-26(33-29)17-24(31)22(11-8-19(3)4)28(23)27-15-20-9-10-21(30)16-25(20)32-27/h7-10,12,14-17,30-31H,6,11,13H2,1-5H3

> <PUBCHEM_IUPAC_INCHIKEY>
VQQUYMQQJUEGEB-UHFFFAOYSA-N

> <PUBCHEM_XLOGP3_AA>
8.1

> <PUBCHEM_EXACT_MASS>
444.23005950

> <PUBCHEM_MOLECULAR_FORMULA>
C29H32O4

> <PUBCHEM_MOLECULAR_WEIGHT>
444.6

> <PUBCHEM_OPENEYE_CAN_SMILES>
CC(=CCCC1(C=CC2=C(O1)C=C(C(=C2C3=CC4=C(O3)C=C(C=C4)O)CC=C(C)C)O)C)C

> <PUBCHEM_OPENEYE_ISO_SMILES>
CC(=CCCC1(C=CC2=C(O1)C=C(C(=C2C3=CC4=C(O3)C=C(C=C4)O)CC=C(C)C)O)C)C

> <PUBCHEM_CACTVS_TPSA>
62.8

> <PUBCHEM_MONOISOTOPIC_WEIGHT>
444.23005950

> <PUBCHEM_TOTAL_CHARGE>
0

> <PUBCHEM_HEAVY_ATOM_COUNT>
33

> <PUBCHEM_ATOM_DEF_STEREO_COUNT>
0

> <PUBCHEM_ATOM_UDEF_STEREO_COUNT>
1

> <PUBCHEM_BOND_DEF_STEREO_COUNT>
0

> <PUBCHEM_BOND_UDEF_STEREO_COUNT>
0

> <PUBCHEM_ISOTOPIC_ATOM_COUNT>
0

> <PUBCHEM_COMPONENT_COUNT>
1

> <PUBCHEM_CACTVS_TAUTO_COUNT>
-1

> <PUBCHEM_COORDINATE_TYPE>
1
5
255

> <PUBCHEM_BONDANNOTATIONS>
11  14  8
14  16  8
15  16  8
17  20  8
2  17  8
2  22  8
20  21  8
21  22  8
21  25  8
22  27  8
25  31  8
27  30  8
30  31  8
5  10  3
7  11  8
7  9  8
9  15  8

$$$$
